%chk=PMC_TS_tsopt1.chk
%nprocshared=8
%mem=25GB
# opt=(calcfc,ts,noeigen) b3lyp/6-31g(d,p) empiricaldispersion=gd3

Practice Constrained with Cytosine

-2 1
 C               -1    3.48174400    3.09658000   -2.15741900
 C                0    2.91030500    3.59177300   -0.84211200
 O                0    2.00478100    2.86162800   -0.31875600
 O                0    3.30622800    4.69613200   -0.37218500
 H                0    3.78401300    2.04945000   -2.07270000
 H                0    4.32351100    3.71291000   -2.48291200
 C               -1   -3.55083200    4.30588000   -0.94726300
 C                0   -2.26162000    5.07440000   -0.68612800
 O                0   -1.90205200    5.94070700   -1.52394300
 O                0   -1.59020900    4.71013200    0.33671000
 H                0   -3.28661100    3.44684100   -1.57392600
 H                0   -4.27676200    4.91555200   -1.49288800
 C               -1   -6.35537600   -1.00438200   -2.01561600
 C                0   -5.70816400   -1.34211000   -0.67681900
 O                0   -5.37226500   -0.29947400    0.00572600
 O                0   -5.52951700   -2.52557100   -0.34512400
 H                0   -6.89874200   -1.86635200   -2.40826000
 H                0   -5.56273800   -0.73301900   -2.72147300
 Mg               0    0.19440600    3.76133800    0.12547600
 O                0   -0.11356200    0.37529200    0.72761000
 P                0   -2.08385900   -0.07819400    1.54535900
 O                0   -2.21028300   -0.97800300    0.18228800
 O                0   -2.35936900    1.40975400    1.41134600
 O                0   -3.90420700   -0.48226800    1.93263200
 O                0   -1.47962300   -0.79219500    2.73587400
 H                0   -4.66718500   -0.45697500    0.91152700
 O                0    1.39045800    5.09662900    1.39411700
 H                0    1.40942400    4.43472700    2.10215700
 H                0    2.24672600    4.97926100    0.88155700
 O                0   -0.89205900    2.24160600   -0.85346000
 H                0   -0.47072500    1.39682900   -0.50594200
 O                0    0.03454400    2.64998400    1.91199900
 H                0    0.24040600    1.72350200    1.55933300
 O                0    0.58086900    5.12483100   -1.50479100
 H                0   -0.27225300    5.65385700   -1.53536500
 H                0   -1.70847800    2.20628900   -0.31442700
 H                0   -0.93281600    2.52096900    2.02590900
 H                0    1.29518100    5.69624900   -1.19296700
 H                0   -4.15118000    0.30909600    2.43103000
 H                0   -7.01665400   -0.13978800   -1.91688500
 H                0   -3.97552300    3.91696600   -0.01966600
 H                0    2.67910300    3.15234500   -2.90028600
 C                0   -2.47676300   -2.37777200    0.34752200
 C                0   -2.42155600   -3.03782500   -1.01480400
 O                0   -1.06354700   -3.18831900   -1.48147000
 C                0   -3.04732100   -4.46423900   -0.97200500
 O                0   -4.25566200   -4.58592300   -1.69554500
 C                0   -1.94353800   -5.34318800   -1.57396800
 C                0   -0.68762300   -4.53772700   -1.23600100
 H                0   -1.93856900   -6.36582400   -1.18244200
 H                0   -3.20016400   -4.75066300    0.08311400
 H                0   -1.73054400   -2.83664700    1.00481300
 H                0   -0.39603100   -4.68025900   -0.18081700
 H                0   -2.09001100   -5.37588400   -2.65915800
 H                0   -2.95072500   -2.42157700   -1.74789600
 H                0   -3.47085700   -2.52465100    0.77661200
 H                0   -4.86414600   -3.91808400   -1.31296200
 H                0    0.17839000   -4.76971600   -1.86536700
 C                0    1.40601100   -2.51169500    2.32609500
 O                0    0.09982100   -2.97767800    2.58040600
 C                0    1.43055000   -1.02772400    1.95561700
 O                0    2.80012000   -0.54194600    1.86854600
 C                0    0.74725200   -0.71032400    0.60953000
 C                0    1.93351500   -0.42985600   -0.35267800
 C                0    3.17706700   -0.31102000    0.53937000
 H                0    3.65110200    0.66914100    0.45503200
 H                0    2.05597100   -1.22631500   -1.09029200
 H                0    0.19830700   -1.59051700    0.24970000
 H                0    0.94113000   -0.45315400    2.74349800
 H                0    1.84011400   -3.09987800    1.49939300
 H                0    1.77124100    0.51301800   -0.87420600
 H                0    2.06191800   -2.66539900    3.20545100
 H                0   -0.49822300   -2.19467500    2.71123800
 C                0    4.60867400   -2.30433200    1.00087900
 C                0    5.55648700   -3.22942600    0.65260300
 H                0    4.10088000   -2.29981500    1.95642100
 H                0    5.84983300   -4.01905300    1.33313300
 N                0    4.25240700   -1.31483200    0.16231000
 N                0    5.82529900   -2.09915100   -1.46848700
 C                0    6.12860900   -3.07872500   -0.64169700
 C                0    4.90160600   -1.14410800   -1.09869100
 N                0    7.09714700   -3.97699100   -1.07080800
 H                0    7.00438600   -4.91959000   -0.71878500
 H                0    7.25020300   -3.92349800   -2.06969800
 O                0    4.60603100   -0.18245100   -1.79651600

