%nprocshared=8
%mem=3GB
# opt b3lyp/6-31g(d,p) empiricaldispersion=gd3

Practice Constrained opt

-1 1
 C               -1   -4.77713900   -4.63774800   -1.57445600
 C                0   -5.16268300   -3.60058400   -2.64525500
 C                0   -4.96817900   -2.16950800   -2.12470200
 O                0   -3.79116300   -1.89470900   -1.68999500
 O                0   -5.94933900   -1.39420300   -2.09709100
 H                0   -4.93073800   -5.65954000   -1.94069000
 H                0   -4.53703500   -3.73611700   -3.54038300
 H                0   -6.20426600   -3.71804600   -2.95672300
 C               -1   -2.42112900   -3.95239000    3.27753200
 C                0   -3.19982100   -2.91367900    4.10333200
 C                0   -4.01347000   -2.03742900    3.15099800
 O                0   -3.34328700   -1.31837800    2.32969700
 O                0   -5.26273200   -2.15863500    3.16855600
 H                0   -3.11225900   -4.56455200    2.68840700
 H                0   -1.84170700   -4.61845400    3.92735000
 H                0   -3.88617700   -3.40124400    4.80118700
 H                0   -2.50369400   -2.29871300    4.68350000
 C               -1    3.28261300   -3.59738200    6.25624500
 C                0    2.83573100   -2.12586000    6.29858400
 C                0    2.10768400   -1.70237200    5.04136300
 C                0    0.70781500   -1.65089400    4.98561400
 C                0    2.82032400   -1.38446200    3.87692600
 C                0    0.03858900   -1.29764400    3.81619500
 C                0    2.17031600   -1.03842500    2.69380500
 C                0    0.77036700   -1.00112700    2.66474900
 O                0    0.08216200   -0.68742500    1.53219300
 H                0    2.41837800   -4.25954700    6.13865400
 H                0    2.18945600   -1.96867600    7.17089400
 H                0    3.71729400   -1.48870300    6.44803000
 H                0    0.12842400   -1.88589800    5.87625000
 H                0    3.90870700   -1.40036400    3.89332400
 H                0   -1.04195300   -1.23832200    3.75597800
 H                0    2.72857300   -0.78466000    1.80282200
 H                0    0.71303400   -0.33903600    0.80660000
 C               -1    5.53075800   -4.04592800    1.70529500
 C                0    4.09405600   -3.89539400    1.19508000
 C                0    3.88508600   -2.71609600    0.25570600
 O                0    2.82457800   -2.87248600   -0.51344200
 O                0    4.61402000   -1.72727900    0.26475400
 H                0    6.22325100   -4.25752900    0.88430900
 H                0    3.74029700   -4.80354000    0.69743600
 H                0    3.40786700   -3.71748000    2.03416500
 C               -1    7.03032700    1.04432100    1.36364800
 C                0    5.79246000    0.75408500    2.22674700
 C                0    4.60764600    1.56951500    1.73405500
 N                0    4.05705000    1.14720000    0.57760500
 O                0    4.24395500    2.59473700    2.33464000
 H                0    6.86198900    0.72420400    0.33161400
 H                0    5.55222800   -0.31304300    2.17084000
 H                0    5.96757000    1.03124300    3.26889800
 H                0    4.21043400    0.18904300    0.26995100
 H                0    3.16716800    1.54425800    0.29385900
 C               -1    0.77776700   -4.96885800   -6.17363500
 C                0    0.71013700   -5.63608500   -4.78806700
 C                0    0.05858200   -4.76091800   -3.76841300
 C                0    0.52150100   -4.14142300   -2.63506300
 N                0   -1.25681900   -4.32787000   -3.89509200
 C                0   -1.53384000   -3.48297800   -2.86992000
 N                0   -0.47556200   -3.35474900   -2.08679200
 H                0    1.33300100   -4.02768800   -6.12107700
 H                0    1.72001900   -5.87186800   -4.43761700
 H                0    0.17904000   -6.59515200   -4.86787800
 H                0   -1.90380600   -4.59419000   -4.62115100
 H                0    1.49905200   -4.19662300   -2.17739600
 H                0   -2.47274200   -2.96085800   -2.69953900
 C                0    1.17819200    4.02891600    1.09273800
 O                0    2.50264600    3.78896000    0.66966100
 C                0    0.22277200    2.92139800    0.63880300
 O                0   -1.09831100    3.24912000    1.14203300
 C                0    0.09187100    2.81281600   -0.89666500
 O                0   -0.27021800    1.50073900   -1.32008100
 C                0   -1.12679200    3.70233500   -1.16251500
 C                0   -2.00080100    3.37904900    0.05169500
 H                0   -2.56470800    2.46160700   -0.08777900
 H                0   -0.84854700    4.76264600   -1.14909800
 H                0    0.99768600    3.14963700   -1.40579400
 H                0    0.53211000    1.96466000    1.06076200
 H                0    0.83859000    4.98274900    0.65957200
 H                0   -1.61036600    3.46443800   -2.11026900
 H                0    1.10034700    4.12580200    2.18487400
 P                0    0.91196300    0.28438100   -1.63656800
 C                0    2.99010000    1.25017800   -2.97954600
 O                0    1.57266500    1.22960800   -2.81329100
 C                0    3.40583400    2.62332000   -3.49926300
 O                0    2.91045700    3.66100900   -2.65735400
 C                0    4.94443300    2.75760600   -3.50437600
 O                0    5.41505000    3.63597800   -4.52995300
 C                0    5.20005900    3.44255600   -2.16101600
 C                0    4.00130200    4.38618700   -2.06434800
 O                0   -0.37176500   -0.61753200   -2.04489000
 O                0    2.00432400   -1.10942200   -2.17010400
 O                0    1.59097400    0.24611600   -0.26060200
 H                0    5.16894300    2.70704800   -1.35108200
 H                0    5.43771700    1.77634800   -3.58127800
 H                0    3.49120900    1.04518700   -2.02999200
 H                0    3.71281000    4.62618100   -1.04000700
 H                0    6.16648800    3.95272200   -2.15063000
 H                0    2.99306100    2.76434700   -4.51127100
 H                0    3.30523000    0.47760300   -3.69262000
 H                0    1.27033000   -5.62099600   -6.90236900
 H                0   -0.22280200   -4.74008700   -6.55625900
 H                0    5.59793400   -4.86113100    2.43201000
 H                0    5.86240800   -3.12112900    2.18450500
 H                0    3.81479100   -3.88455900    7.17081000
 H                0    3.94866600   -3.77293900    5.40429400
 H                0    7.25736900    2.11553900    1.35764800
 H                0    7.90775300    0.51158400    1.74507100
 H                0    5.02605000    3.34471600   -5.36464700
 H                0   -3.72956100   -4.51943800   -1.28723500
 H                0   -5.37131300   -4.48541200   -0.67082900
 H                0    2.59221400   -2.06965100   -1.11038700
 H                0    3.05445300    3.43517200    1.40795300
 H                0   -1.74301500   -3.46453100    2.57938900
 H                0    1.75034100   -1.45936500   -3.03490900
 O                0   -2.19282100    0.33836200    0.30653300
 H                0   -1.58249700    0.24030900    1.05848500
 H                0   -1.61588600    0.58311800   -0.44954600
 O                0   -5.40624700   -2.35326200    0.62768600
 H                0   -6.10771700   -1.90288100    0.13771100
 O                0   -1.83771800   -2.49464300    0.34846400
 H                0   -1.35373400   -2.79303700   -0.44415000
 O                0   -5.00357300    0.31074200   -0.21257100
 H                0   -4.76958100    1.24688000   -0.34073200
 H                0   -5.56682900   -2.20732700    1.61223700
 H                0   -1.18256900   -1.99503600    0.87224100
 H                0   -5.41267600   -0.02713300   -1.04578100
 H                0   -0.19280800   -1.58252100   -1.98120300
 H                0    4.18726100    5.30604200   -2.63778200
 Mg               0   -3.59364200   -1.21449500    0.27729100
 C                0   -2.63438700    5.52436500    1.05587500
 C                0   -3.53874200    6.50069800    1.34846700
 H                0   -1.59445200    5.55976100    1.35845700
 H                0   -3.25646700    7.38183700    1.91078300
 N                0   -2.99911500    4.40972700    0.38171100
 N                0   -5.25647600    5.18203500    0.25496600
 C                0   -4.87917300    6.26567100    0.90830600
 C                0   -4.35168500    4.19737900   -0.03409100
 N                0   -5.85679400    7.18123400    1.19858100
 H                0   -5.59172600    8.13122600    1.40322500
 H                0   -6.73410700    7.04095300    0.71923400
 O                0   -4.63946100    3.17086000   -0.64779800

