%nprocshared=8
%mem=30GB
# m062x/6-311+g(2df,2p) scrf=(iefpcm,read) integral=ultrafine

IC-185

-2 1
 C               -1   -0.25599500   -5.48797600    4.53416800
 C                0   -0.56383300   -5.94287700    3.10369800
 C                0   -0.84892400   -4.78086300    2.13752800
 O                0   -1.39731600   -3.75419000    2.63408700
 O                0   -0.53984400   -4.94155200    0.91875300
 H                0    0.68323700   -4.92659500    4.56623400
 H                0    0.24776600   -6.54361100    2.68081500
 H                0   -1.45893400   -6.58220200    3.09899800
 C               -1    0.89233500   -1.55247200    5.31717000
 C                0   -0.42941400   -0.86067400    5.66677000
 C                0   -1.47392200   -1.06448500    4.56323200
 O                0   -1.05197200   -0.88781400    3.37800400
 O                0   -2.64639100   -1.38008000    4.89760900
 H                0    1.26009100   -1.18253900    4.35777400
 H                0    0.74513300   -2.63274100    5.21651000
 H                0   -0.84410600   -1.22100100    6.61410500
 H                0   -0.26234900    0.22049000    5.76734800
 C               -1    6.70316300    1.79454000    0.83949700
 C                0    5.58264900    0.84545200    1.24330600
 C                0    4.22237600    1.52194600    1.32958800
 O                0    4.06150200    2.73661900    1.30803300
 O                0    3.25279100    0.62648600    1.45472500
 H                0    6.56280400    2.10439600   -0.19877100
 H                0    5.51051600    0.03169600    0.51591300
 H                0    5.77239700    0.38285000    2.22224900
 C               -1    8.64812600    0.51049000   -2.57741600
 C                0    8.17276100   -0.94202500   -2.66456500
 C                0    6.67468400   -1.15355500   -2.32197400
 O                0    6.22933400   -2.31837800   -2.60351300
 O                0    6.04095000   -0.21030900   -1.80362100
 H                0    8.44660600    0.91381300   -1.58198900
 H                0    8.34688600   -1.36061800   -3.66385000
 H                0    8.74973100   -1.57617600   -1.97659200
 C               -1    3.45584800   -5.52448300   -2.35693900
 C                0    2.98999400   -4.42836600   -3.33087000
 C                0    2.66991500   -3.13668400   -2.64744800
 C                0    1.46717200   -2.56002400   -2.31375400
 N                0    3.64546800   -2.27986400   -2.17395300
 C                0    3.02656400   -1.23932600   -1.59089900
 N                0    1.69514700   -1.36794200   -1.64958700
 H                0    2.68639100   -5.72137300   -1.60375400
 H                0    3.76996500   -4.25907900   -4.08481300
 H                0    2.09561400   -4.76728700   -3.86734700
 H                0    4.72514900   -2.33564300   -2.31712800
 H                0    0.46492600   -2.92026800   -2.50204300
 H                0    3.55886100   -0.40751900   -1.15792100
 H                0    2.41978400    1.65054400   -2.13381400
 Mg               0   -1.59990600   -1.84380800    1.69235100
 C                0   -4.01740900    0.82040000   -1.12090600
 C                0   -2.89256900    1.47727100   -1.90803000
 C                0   -2.36061100    2.49503000   -0.86685200
 O                0   -1.39485900    1.98652000   -0.00901100
 C                0   -3.65985000    2.85070200   -0.07544600
 O                0   -4.69737000    1.90985600   -0.50361000
 C                0   -4.19568700    4.25097200   -0.32011300
 O                0   -4.55501800    4.44444900   -1.68756600
 N                0   -4.98383600    0.05412200   -1.93636200
 C                0   -4.54776700   -1.22634100   -2.40298100
 O                0   -3.40192100   -1.59309900   -2.14737700
 N                0   -5.44556100   -1.97359100   -3.11765200
 C                0   -6.65223900   -1.50179300   -3.37026400
 N                0   -7.47987100   -2.30325100   -4.13376800
 C                0   -7.11149100   -0.22760700   -2.93056300
 C                0   -6.22372600    0.51149200   -2.19648200
 H                0   -8.10670400    0.14027100   -3.14690800
 H                0   -6.45769300    1.47892400   -1.77049400
 H                0   -8.47325800   -2.19432300   -3.99174700
 H                0   -3.61556800    0.12829600   -0.37487400
 H                0   -7.15987700   -3.26093600   -4.19107500
 H                0   -3.32710700    1.99822500   -2.77161900
 H                0   -1.96878100    3.38903300   -1.36323100
 H                0   -3.45784100    2.69456000    0.98952900
 H                0   -5.06085200    4.44272500    0.33849900
 H                0   -2.12229400    0.78747900   -2.24059800
 H                0   -3.40293600    4.96463000   -0.07323300
 C                0    1.31333100    4.34975400   -0.73803800
 O                0   -0.70232900    4.84195400    0.65235800
 P                0    0.79455200    1.82344500   -0.65328600
 O                0    0.97640300    1.64648400    0.82917900
 O                0    2.38259700    1.71003900   -1.17040700
 O                0    0.90775300    6.96173600    1.89908500
 O                0    0.47543300    3.30751800   -1.26114200
 C                0    0.52210600    5.35304100    0.15746100
 C                0    1.34994100    5.68921700    1.40382500
 C                0    0.96849600    4.52176900    2.32405300
 C                0   -0.49831900    4.24358800    1.95190700
 H                0    1.73716000    4.88670400   -1.59563500
 H                0    2.15186100    3.91433400   -0.18480300
 H                0    0.28421200    6.25887300   -0.41231300
 H                0    2.42936800    5.71480200    1.19312800
 H                0    1.59634300    3.65490900    2.10214400
 H                0    1.10472800    4.77637300    3.38245200
 H                0   -1.19718900    4.72933100    2.64689300
 H                0   -0.71248500    3.17622700    1.87670400
 O                0    0.35122700   -2.30164400    0.92877900
 H                0    0.36201700   -3.24216000    0.66778300
 H                0    0.80566900   -1.78664200    0.24165900
 O                0   -1.73181600   -0.35957000    0.37145300
 H                0   -1.47290400   -0.65430900   -0.50976400
 H                0   -1.56539200    0.78688100    0.28869700
 O                0   -3.60104400   -1.94702900    2.52115800
 H                0   -3.63543100   -2.91391000    2.52323900
 H                0   -3.36879900   -1.70018700    3.47414900
 O                0   -2.46022900   -3.13498200    0.13947700
 H                0   -2.64318800   -2.75591900   -0.73565600
 H                0   -1.79479100   -3.85653400    0.08314200
 O                0    0.16117500    0.74672300   -1.64395900
 H                0    2.35091300    1.06329600    1.30384400
 H                0    0.76362400   -0.10347100   -1.64344200
 H                0   -4.97427700    3.60842500   -1.93944300
 H                0    1.17607300    7.00144100    2.82568600
 H                0    4.36443300   -5.20610600   -1.83628700
 H                0    3.67442300   -6.46026500   -2.88602600
 H                0    9.72160700    0.60104100   -2.79081700
 H                0    8.10028900    1.13958600   -3.28655600
 H                0    7.67686700    1.29642500    0.90833700
 H                0    6.71357300    2.68920000    1.47031400
 H                0   -1.04357800   -4.82023300    4.89072100
 H                0   -0.16599600   -6.34131000    5.21794600
 H                0    1.65577900   -1.37968800    6.08615200

 1 2 1.0 6 1.0 118 1.0 119 1.0
 2 3 1.0 7 1.0 8 1.0
 3 4 2.0 5 2.0
 4 48 1.0
 5
 6
 7
 8
 9 10 1.0 14 1.0 15 1.0 120 1.0
 10 11 1.0 16 1.0 17 1.0
 11 12 2.0 13 2.0
 12 48 1.0
 13
 14
 15
 16
 17
 18 19 1.0 23 1.0 116 1.0 117 1.0
 19 20 1.0 24 1.0 25 1.0
 20 21 2.0 22 1.5
 21
 22 108 1.0
 23
 24
 25
 26 27 1.0 31 1.0 114 1.0 115 1.0
 27 28 1.0 32 1.0 33 1.0
 28 29 2.0 30 2.0
 29
 30
 31
 32
 33
 34 35 1.0 41 1.0 112 1.0 113 1.0
 35 36 1.0 42 1.0 43 1.0
 36 37 2.0 38 1.0
 37 40 1.0 45 1.0
 38 39 1.5
 39 40 1.5 46 1.0
 40
 41
 42
 43
 44
 45
 46
 47 80 1.0
 48 98 1.0
 49 50 1.0 54 1.0 57 1.0 68 1.0
 50 51 1.0 70 1.0 74 1.0
 51 52 1.0 53 1.0 71 1.0
 52
 53 54 1.0 55 1.0 72 1.0
 54
 55 56 1.0 73 1.0 75 1.0
 56 110 1.0
 57 58 1.0 64 1.5
 58 59 2.0 60 1.5
 59
 60 61 2.0
 61 62 1.0 63 1.5
 62 67 1.0 69 1.0
 63 64 2.0 65 1.0
 64 66 1.0
 65
 66
 67
 68
 69
 70
 71
 72
 73
 74
 75
 76 82 1.0 83 1.0 87 1.0 88 1.0
 77 83 1.0 86 1.0
 78 79 2.0 80 1.0 82 1.0 107 1.5
 79
 80
 81 84 1.0 111 1.0
 82
 83 84 1.0 89 1.0
 84 85 1.0 90 1.0
 85 86 1.0 91 1.0 92 1.0
 86 93 1.0 94 1.0
 87
 88
 89
 90
 91
 92
 93
 94
 95 96 1.0 97 1.0
 96
 97
 98 99 1.0
 99
 100
 101 102 1.0 103 1.0
 102
 103
 104 105 1.0 106 1.0
 105
 106
 107
 108
 109
 110
 111
 112
 113
 114
 115
 116
 117
 118
 119
 120

eps=4












