%nprocshared=8
%mem=30GB
# m062x/6-311+g(2df,2p) scrf=(iefpcm,read) integral=ultrafine

IC-185

-2 1
 C               -1   -0.23435500   -5.22205200    3.82377700
 C                0   -0.93709300   -6.06872600    2.75349800
 C                0   -1.90135900   -5.21714200    1.92217600
 O                0   -2.55120400   -4.32822700    2.56453000
 O                0   -1.96735300   -5.39791400    0.67549200
 H                0    0.28728900   -4.37398200    3.37174400
 H                0   -0.22420400   -6.54368800    2.07248500
 H                0   -1.51586200   -6.87481500    3.22721800
 C               -1    1.28762700   -1.44085300    4.72134400
 C                0    0.19852600   -0.37221800    4.60439400
 C                0   -1.07516900   -0.86300500    3.93083000
 O                0   -0.97496300   -1.83865600    3.12244000
 O                0   -2.16036100   -0.25317500    4.18591700
 H                0    1.55149700   -1.81422700    3.72955200
 H                0    0.94879100   -2.29613000    5.31780500
 H                0   -0.07477200    0.04700100    5.57945300
 H                0    0.54571700    0.46124200    3.98101400
 C               -1    7.16985800    1.60402500    0.12279700
 C                0    6.26931500    0.69461700    0.95122800
 C                0    4.78853600    1.04701800    0.85569200
 O                0    4.35398200    1.57783600   -0.19658700
 O                0    4.05820200    0.69392900    1.86089900
 H                0    6.78076400    1.65796200   -0.89544700
 H                0    6.37815100   -0.32235500    0.55135900
 H                0    6.55723900    0.66476800    2.00830600
 C               -1    8.84432700    0.32115500   -3.43485100
 C                0    7.71164400   -0.67919500   -3.70849700
 C                0    7.03349200   -1.27533500   -2.43456700
 O                0    5.93244500   -1.87751100   -2.66739800
 O                0    7.61758300   -1.13764700   -1.34183400
 H                0    9.57851300   -0.12743700   -2.75950600
 H                0    6.92209600   -0.22440600   -4.31849600
 H                0    8.08975500   -1.52724500   -4.29899400
 C               -1    3.15716800   -5.25045100   -3.23046900
 C                0    3.21015100   -3.72322800   -3.44845400
 C                0    2.76289000   -2.95888700   -2.23832400
 C                0    1.52410900   -2.77338000   -1.67071100
 N                0    3.65772200   -2.33226200   -1.39135500
 C                0    2.94971200   -1.80215500   -0.37110000
 N                0    1.64298100   -2.04808800   -0.49821400
 H                0    2.14041900   -5.57377600   -2.98352300
 H                0    4.22870700   -3.40467900   -3.69647000
 H                0    2.57202300   -3.46244700   -4.30294800
 H                0    4.67336000   -2.15202800   -1.66616400
 H                0    0.55748300   -3.10776700   -2.02224200
 H                0    3.39365400   -1.23510200    0.43225700
 H                0    2.58047300    1.13150400   -0.08365200
 Mg               0   -2.43805800   -2.41940600    1.80082700
 C                0   -3.85469900    1.26102100   -1.27494200
 C                0   -2.45103200    1.45590100   -1.83573500
 C                0   -1.92304900    2.57459100   -0.92267600
 O                0   -1.45376900    2.09224500    0.31878200
 C                0   -3.19499700    3.39783100   -0.61495300
 O                0   -4.33250900    2.57894800   -1.02052200
 C                0   -3.29390900    4.72328400   -1.35119000
 O                0   -3.28095500    4.55152400   -2.76580000
 N                0   -4.80391400    0.60114900   -2.20152000
 C                0   -4.61692300   -0.80038800   -2.41513400
 O                0   -3.66247800   -1.34875000   -1.86953300
 N                0   -5.51772200   -1.44364300   -3.21856500
 C                0   -6.49818200   -0.77046000   -3.79031400
 N                0   -7.33300900   -1.48388700   -4.62188900
 C                0   -6.70278600    0.63014900   -3.61262600
 C                0   -5.82065000    1.26856300   -2.78642300
 H                0   -7.51363800    1.16599800   -4.08989700
 H                0   -5.88858600    2.31980100   -2.53855100
 H                0   -8.26877500   -1.13215300   -4.75587500
 H                0   -3.83038900    0.66002400   -0.36093300
 H                0   -7.25267500   -2.48606200   -4.51669000
 H                0   -2.52485200    1.81903000   -2.86789900
 H                0   -1.16673400    3.18749100   -1.41457800
 H                0   -3.24453300    3.56154600    0.46602100
 H                0   -4.20719700    5.25294800   -1.02925500
 H                0   -1.84262300    0.55651500   -1.79962800
 H                0   -2.42469000    5.32825400   -1.07662200
 C                0    1.71210900    3.63357000    0.18447600
 O                0   -0.39455600    4.90793900    0.58359100
 P                0    0.14950300    1.57378600    0.60439700
 O                0    0.15346800    1.74563400    2.09437400
 O                0    1.98330000    0.81863600    0.63792700
 O                0    1.32108300    7.01708600    1.71543600
 O                0    0.80947600    2.70137300   -0.40995000
 C                0    1.02246200    5.00510900    0.43930100
 C                0    1.51402300    5.59748100    1.76175100
 C                0    0.56858000    4.90965300    2.75865900
 C                0   -0.75035000    4.82294800    1.97601800
 H                0    2.56436900    3.75079900   -0.49098700
 H                0    2.10854900    3.21754100    1.11458000
 H                0    1.20951400    5.68899000   -0.39527100
 H                0    2.57159100    5.35802400    1.94790900
 H                0    0.91683200    3.89856000    2.98511700
 H                0    0.48083700    5.47010900    3.69688900
 H                0   -1.42126200    5.66317400    2.20313500
 H                0   -1.25513100    3.87001200    2.15237400
 O                0   -0.89824600   -2.81813000    0.39476600
 H                0   -0.89434200   -3.76829000    0.18940400
 H                0    0.03579700   -2.50201800    0.38813200
 O                0   -2.56528500   -0.44520700    1.12604200
 H                0   -1.80257900   -0.26759700    0.53312500
 H                0   -2.42840100    0.16568500    1.87100100
 O                0   -3.91275900   -1.88665000    3.23517000
 H                0   -3.87072500   -2.67983200    3.78739900
 H                0   -3.32596700   -1.19274000    3.70202500
 O                0   -3.68224100   -3.18496900    0.25732200
 H                0   -3.60040400   -2.69869700   -0.58563500
 H                0   -3.23950200   -4.05904800    0.15926700
 O                0   -0.17624300    0.17557200   -0.18193100
 H                0    2.75917200    0.79252500    1.40816500
 H                0    0.57988800   -0.46761200   -0.18192900
 H                0   -3.88783800    3.81572300   -2.93072400
 H                0    1.43822700    7.34124300    2.61758200
 H                0    3.80922800   -5.54076300   -2.40033500
 H                0    3.48350000   -5.79233400   -4.12724000
 H                0    9.34606200    0.63580600   -4.36016700
 H                0    8.45703300    1.21206400   -2.93008400
 H                0    8.18569300    1.20343300    0.07101100
 H                0    7.20169000    2.62407500    0.52997200
 H                0   -0.97027600   -4.79968900    4.51058600
 H                0    0.48929700   -5.81871300    4.39202400
 H                0    2.19169100   -1.03075200    5.18483100

 1 2 1.0 6 1.0 118 1.0 119 1.0
 2 3 1.0 7 1.0 8 1.0
 3 4 2.0 5 2.0
 4 48 1.0
 5
 6
 7
 8
 9 10 1.0 14 1.0 15 1.0 120 1.0
 10 11 1.0 16 1.0 17 1.0
 11 12 2.0 13 2.0
 12 48 1.0
 13
 14
 15
 16
 17
 18 19 1.0 23 1.0 116 1.0 117 1.0
 19 20 1.0 24 1.0 25 1.0
 20 21 2.0 22 1.5
 21
 22
 23
 24
 25
 26 27 1.0 31 1.0 114 1.0 115 1.0
 27 28 1.0 32 1.0 33 1.0
 28 29 2.0 30 2.0
 29
 30
 31
 32
 33
 34 35 1.0 41 1.0 112 1.0 113 1.0
 35 36 1.0 42 1.0 43 1.0
 36 37 2.0 38 1.0
 37 40 1.0 45 1.0
 38 39 1.5
 39 40 1.5 46 1.0
 40
 41
 42
 43
 44
 45
 46
 47 80 1.0
 48 95 1.0 98 1.0 101 1.0 104 1.0
 49 50 1.0 54 1.0 57 1.0 68 1.0
 50 51 1.0 70 1.0 74 1.0
 51 52 1.0 53 1.0 71 1.0
 52 78 1.0
 53 54 1.0 55 1.0 72 1.0
 54
 55 56 1.0 73 1.0 75 1.0
 56 110 1.0
 57 58 1.0 64 1.5
 58 59 2.0 60 1.5
 59
 60 61 2.0
 61 62 1.5 63 1.5
 62 67 1.0 69 1.0
 63 64 2.0 65 1.0
 64 66 1.0
 65
 66
 67
 68
 69
 70
 71
 72
 73
 74
 75
 76 82 1.0 83 1.0 87 1.0 88 1.0
 77 83 1.0 86 1.0
 78 79 2.0 82 1.0 107 1.0
 79
 80
 81 84 1.0 111 1.0
 82
 83 84 1.0 89 1.0
 84 85 1.0 90 1.0
 85 86 1.0 91 1.0 92 1.0
 86 93 1.0 94 1.0
 87
 88
 89
 90
 91
 92
 93
 94
 95 96 1.0 97 1.0
 96
 97
 98 99 1.0 100 1.0
 99
 100
 101 102 1.0
 102
 103
 104 105 1.0 106 1.0
 105
 106
 107 109 1.0
 108
 109
 110
 111
 112
 113
 114
 115
 116
 117
 118
 119
 120

eps=4









