%nprocshared=8
%mem=30GB
# opt=maxstep=5 b3lyp/6-31g(d,p) empiricaldispersion=gd3bj

Title Card Required

-1 1
 C               -1    5.62457400   -4.11072100   -0.35177200
 C                0    4.46859200   -3.46117800    0.41791500
 C                0    3.88613800   -2.31145200   -0.38874700
 N                0    2.56487500   -2.27481700   -0.53722900
 O                0    4.67438900   -1.49100100   -0.90900100
 H                0    5.26799100   -4.57628300   -1.27659500
 H                0    3.68926200   -4.18695500    0.67002300
 H                0    4.83534400   -3.04523600    1.36171100
 H                0    1.96263400   -2.85380400    0.03862100
 H                0    2.13116600   -1.52320800   -1.08401200
 C               -1    7.23595800    0.90107200   -0.25047400
 C                0    6.94874300    2.11857900    0.65410600
 C                0    5.87855500    3.00113100    0.01260100
 O                0    4.65994300    2.75768400    0.30755700
 O                0    6.28134500    3.85258500   -0.81954200
 H                0    8.14669800    0.38610500    0.08387700
 H                0    6.61592400    1.80396000    1.65083200
 H                0    7.85988000    2.71341700    0.76954700
 C               -1    3.93744300   -0.98274000   -4.13974700
 C                0    2.49170000   -0.43464200   -4.25587800
 C                0    2.06832100    0.38919300   -3.03605800
 O                0    1.46981600   -0.23094300   -2.10566400
 O                0    2.38714400    1.61638400   -2.98801300
 H                0    4.10955700   -1.47946100   -3.18331200
 H                0    4.68252800   -0.18876800   -4.26040100
 H                0    2.40630100    0.18754000   -5.15187400
 H                0    1.79520100   -1.27309000   -4.34224500
 C               -1   -0.50501800   -5.46903600   -5.43274400
 C                0   -1.64825300   -5.71277800   -4.44011100
 C                0   -1.82628100   -4.49370000   -3.57336200
 C                0   -2.92801900   -3.64296900   -3.69249000
 C                0   -0.78232200   -4.10797600   -2.72314000
 C                0   -2.98918000   -2.43932100   -2.99138500
 C                0   -0.81723100   -2.91363300   -2.02475300
 C                0   -1.92661400   -2.06845300   -2.16286000
 O                0   -1.98703600   -0.89125300   -1.50023600
 H                0   -0.71629000   -4.58829000   -6.04709800
 H                0   -2.57555400   -5.93228200   -4.98210300
 H                0   -1.42133800   -6.59924100   -3.83166700
 H                0   -3.74764700   -3.91911900   -4.35220500
 H                0    0.09235300   -4.74642400   -2.63280500
 H                0   -3.84777600   -1.78161000   -3.06838100
 H                0   -0.00578000   -2.60729200   -1.38235900
 H                0   -1.23682800   -0.87330300   -0.79880100
 C               -1   -6.49618900    0.36893400   -2.54203300
 C                0   -5.51798200    1.54534600   -2.42513000
 C                0   -5.14686300    1.97053600   -1.00990900
 N                0   -4.94211200    0.98023000   -0.12179600
 O                0   -4.99747600    3.17081000   -0.72143400
 H                0   -6.08959100   -0.55260600   -2.11630600
 H                0   -4.57276200    1.30366400   -2.93062800
 H                0   -5.91950200    2.43938600   -2.91005200
 H                0   -4.99147900   -0.01418000   -0.34822700
 H                0   -4.65971500    1.19870300    0.82498000
 C               -1   -0.14151300   -7.02382700   -0.59362900
 C                0    0.70405400   -5.89042200   -0.00404100
 C                0   -0.06903900   -4.79085100    0.71967600
 O                0    0.75388500   -3.87375300    1.21575800
 O                0   -1.28600500   -4.76892200    0.83444400
 H                0   -0.69824500   -7.54418600    0.19074700
 H                0    1.44359100   -6.27879000    0.70748600
 H                0    1.29196100   -5.39157400   -0.78429400
 C               -1   -4.78648300   -4.95745500    0.96577100
 C                0   -4.35420900   -4.18831800   -0.29104500
 C                0   -4.24092100   -2.71011100    0.02922100
 N                0   -3.19642900   -2.37027100    0.80737500
 O                0   -5.11893000   -1.90388100   -0.32349400
 H                0   -4.00461200   -4.91197700    1.72807100
 H                0   -3.39168200   -4.56575600   -0.64717000
 H                0   -5.09024300   -4.29034300   -1.09054800
 H                0   -2.40541600   -3.00262600    0.89996700
 H                0   -3.03311400   -1.38747400    0.97810800
 C               -1    5.60881300   -3.13041000    5.51338300
 C                0    6.19738800   -2.26039000    4.39191700
 C                0    5.13342900   -1.59201600    3.57781900
 C                0    3.76923600   -1.74144400    3.57236400
 N                0    5.37648600   -0.61777400    2.61641000
 C                0    4.18728700   -0.22168700    2.08202500
 N                0    3.20004900   -0.89588300    2.64492300
 H                0    4.98457600   -3.92856700    5.10039400
 H                0    6.85907300   -1.49993900    4.82868900
 H                0    6.83542600   -2.88032800    3.74599500
 H                0    6.27638500   -0.27350600    2.31548600
 H                0    3.16628100   -2.40566500    4.17290500
 H                0    4.08445900    0.54871400    1.32657000
 C                0   -1.99202200    2.41427400   -2.38705300
 O                0   -2.28123400    1.24309300   -3.11987800
 C                0   -0.98350400    2.23019200   -1.24759200
 O                0   -0.53070500    3.57406800   -0.90890900
 C                0   -1.50978500    1.68695100    0.09432200
 O                0   -0.41381000    1.26697500    0.89440900
 C                0   -2.09202900    2.93737700    0.75346000
 C                0   -1.02873300    3.96487200    0.38408900
 H                0   -0.20279500    3.95129100    1.09327900
 H                0   -3.07996200    3.16291900    0.34833000
 H                0   -2.26040500    0.90898800   -0.03952400
 H                0   -0.12463300    1.65167900   -1.59295400
 H                0   -2.90467700    2.88208000   -1.99010000
 H                0   -2.16459200    2.79982600    1.83234000
 H                0   -1.54022700    3.13494900   -3.07873000
 P                0   -0.33320900   -0.30587000    1.62340600
 C                0   -2.35042700   -0.68269900    3.44496400
 O                0   -1.79514900    0.00946500    2.34027000
 C                0   -3.69609400   -0.03662200    3.75366100
 O                0   -4.49259400    0.03541600    2.56745800
 C                0   -4.49654200   -0.87944500    4.76527200
 O                0   -5.36082600   -0.08658000    5.57772500
 C                0   -5.38196300   -1.72028800    3.84444500
 C                0   -5.70461600   -0.72409600    2.73455300
 O                0    0.88828200    0.25577700    2.49496700
 O                0   -0.19971200   -1.92392400    2.52852800
 O                0   -0.30104600   -1.11147400    0.32298500
 H                0   -4.81316300   -2.56321100    3.44189500
 H                0   -3.83166600   -1.49266100    5.39209500
 H                0   -2.47509500   -1.74435500    3.22160400
 H                0   -5.93805000   -1.18342800    1.77316700
 H                0   -6.26301700   -2.09476600    4.37065600
 H                0   -3.53216500    0.98611700    4.12487800
 H                0   -1.70061400   -0.59127700    4.32652900
 H                0    4.98888200   -2.53024800    6.18565000
 H                0    6.40564900   -3.59466000    6.10090500
 H                0    0.49780700   -7.74730300   -1.10786700
 H                0   -0.86946500   -6.62688700   -1.30548200
 H                0   -0.35273700   -6.32585400   -6.10099200
 H                0    0.43592200   -5.28167000   -4.90794900
 H                0   -7.43977100    0.58273900   -2.02783600
 H                0   -5.70807200   -4.53779900    1.38410600
 H                0   -4.96929400   -6.01221600    0.73525600
 H                0   -4.83737100    0.64006700    5.93943400
 H                0    6.35917800   -3.34963200   -0.62231000
 H                0    6.11442200   -4.88319500    0.24978700
 H                0   -6.72456300    0.17598200   -3.59556200
 H                0    6.41793100    0.18155400   -0.24976900
 H                0    7.38667100    1.22850700   -1.28004000
 H                0    0.27859800   -3.08475200    1.70585900
 H                0   -2.23085900    0.47340000   -2.51530100
 H                0    4.12265300   -1.70562000   -4.94127500
 H                0    0.22863500   -1.79800700    3.38489000
 O                0    2.04514800    4.12803500   -0.95725500
 H                0    1.08731700    3.91371300   -1.08856700
 H                0    2.02619900    4.71452300   -0.18222400
 O                0    4.72374700    1.00321300   -1.80853500
 H                0    4.58212000    0.97568900   -2.76166600
 O                0    2.17814100    1.20843600   -0.07523100
 H                0    1.42015900    1.47047400    0.48268800
 O                0    4.35021800    3.80599300   -2.49616700
 H                0    3.76538100    4.57431600   -2.44695200
 H                0    4.60343700    0.07523700   -1.47969100
 H                0    1.76610900    0.59916000   -0.75733600
 H                0    5.14110800    3.99769900   -1.88826600
 H                0    1.72110800   -0.32858700    2.51457200
 H                0   -6.51894100   -0.05298600    3.03672500
 Mg               0    3.31334900    2.46762200   -1.24115500
 C                0   -2.68718500    5.69484100   -0.17811900
 C                0   -3.03373700    7.00033500   -0.33788800
 H                0   -3.37449300    4.88755400   -0.41058800
 H                0   -4.01161500    7.27431200   -0.71217200
 N                0   -1.45567300    5.35703000    0.29248300
 N                0   -0.82630200    7.66290800    0.41694100
 C                0   -2.04382300    7.97108700    0.00913500
 C                0   -0.44681100    6.35376200    0.50873400
 N                0   -2.33323200    9.30272600   -0.11048500
 H                0   -3.29676900    9.59499200   -0.12528400
 H                0   -1.66239400    9.93112300    0.30615300
 O                0    0.69901100    5.99746400    0.78304200

