%nprocshared=8
%mem=30GB
# freq b3lyp/6-31g(d,p) empiricaldispersion=gd3

M1 TS2 fopt2

-1 1
 C               -1    6.07565200   -1.22063600    0.95927300
 C                0    6.38948200   -1.99850100   -0.32807800
 C                0    5.14883400   -2.68818400   -0.91609200
 O                0    4.08666800   -1.96794200   -0.99203900
 O                0    5.23265400   -3.88455500   -1.26027300
 H                0    6.99259600   -0.82627100    1.41341700
 H                0    6.80021400   -1.32560400   -1.09874700
 H                0    7.14799100   -2.76606600   -0.15155000
 C               -1    1.74522700   -0.48348300    4.16241800
 C                0    0.73780000   -1.60179600    3.83973100
 C                0    1.42907600   -2.66182700    2.98416100
 O                0    2.35424400   -3.31860100    3.53022000
 O                0    1.08347800   -2.75805500    1.75789500
 H                0    2.10409600   -0.01077500    3.24500400
 H                0    2.60802300   -0.90310700    4.68726400
 H                0    0.39802700   -2.06979800    4.77133900
 H                0   -0.12789900   -1.18965600    3.31742300
 C               -1    0.33182700    5.91783500    3.11932300
 C                0    0.53670800    5.11970500    1.85068300
 O                0    1.19609800    3.99341800    2.07910600
 O                0    0.12524900    5.48131300    0.75317400
 H                0    1.29487600    6.09780500    3.60536600
 H                0   -0.27882200    5.33598200    3.81652500
 C               -1    7.13456100    3.68478000   -1.94676100
 C                0    5.92787100    2.80682800   -1.92175400
 C                0    4.58601900    3.08215500   -2.00252400
 N                0    5.99358000    1.42595800   -1.81529100
 C                0    4.72822800    0.92561800   -1.83909800
 N                0    3.85804700    1.91353400   -1.95395900
 H                0    7.78269600    3.46583700   -2.80431900
 H                0    7.73876900    3.57696800   -1.03765200
 H                0    6.82803400    0.87193800   -1.69465700
 H                0    4.10419800    4.04518800   -2.08522500
 H                0    4.49280900   -0.13327600   -1.74199400
 C                0   -2.36018900   -0.80934100    1.64030300
 O                0   -1.71400700    0.38777300    2.03462100
 C                0   -1.66563900   -1.52494000    0.48031100
 O                0   -2.33786500   -2.80507300    0.24596800
 C                0   -1.69972500   -0.75844600   -0.86567000
 O                0   -0.43656400   -0.34712000   -1.34099900
 C                0   -2.35348000   -1.75198100   -1.84774600
 C                0   -3.05622800   -2.77285100   -0.95982200
 H                0   -3.07028500   -3.77880300   -1.38596200
 H                0   -3.01001500   -1.27671300   -2.57259400
 H                0   -2.31476900    0.13663100   -0.78079900
 H                0   -0.64176000   -1.76324800    0.77763600
 H                0   -3.39048300   -0.55288900    1.35966200
 H                0   -1.55616400   -2.26512400   -2.39221500
 H                0   -2.41328500   -1.51018700    2.48863700
 P                0    0.49830500    1.57730600   -0.69926500
 C                0   -1.77052500    2.79150400   -0.21445400
 O                0   -0.91524500    2.18307100   -1.20878000
 C                0   -3.15838100    2.99906000   -0.80769600
 O                0   -3.71266900    1.77767100   -1.29871600
 C                0   -4.12636900    3.50528000    0.28537100
 O                0   -5.18682000    4.29831700   -0.24936200
 C                0   -4.74184000    2.19456500    0.77877500
 C                0   -4.86560700    1.40874900   -0.52734200
 O                0    1.39043000    1.13162600   -1.91018700
 O                0    1.27045400    3.06527300   -0.37715600
 O                0    0.57903400    0.98000200    0.69072900
 H                0   -4.04964100    1.69933800    1.46671600
 H                0   -3.59486600    4.04977800    1.07986300
 H                0   -1.83469600    2.14445100    0.66383900
 H                0   -4.85308700    0.32434000   -0.39475600
 H                0   -5.69662500    2.36514000    1.28203700
 H                0   -3.09451800    3.70989300   -1.64486300
 H                0   -1.35991800    3.76433100    0.08152200
 H                0   -4.78813000    5.02128300   -0.75094400
 H                0    5.40620800   -0.38042200    0.76387500
 H                0    5.57338300   -1.87570700    1.67352700
 H                0    1.28391400    3.49131000    1.21519900
 H                0   -0.82383000    0.45273500    1.62434000
 H                0    1.28750300    0.28928100    4.79000200
 H                0    0.81973100    3.82787600   -0.77051900
 O                0    0.89620900   -2.44681000   -1.16349300
 H                0    0.19451500   -2.99998600   -0.79089900
 H                0    0.22023400   -1.18889000   -1.31055500
 O                0    3.82986800   -3.57073700    1.46225500
 H                0    3.93402800   -4.46360100    1.11022500
 O                0    2.67726600   -0.64038000    0.87084800
 H                0    3.27751100   -0.25593200    0.21958700
 O                0    2.62250400   -4.51445300   -0.99035000
 H                0    2.04255000   -4.03447500   -1.61349100
 H                0    3.31273200   -3.63629500    2.33598800
 H                0    1.86063800   -0.08103200    0.87264100
 H                0    3.55225500   -4.38452100   -1.31377400
 H                0    2.32213700    1.57594300   -1.92956300
 H                0   -5.77938100    1.68400100   -1.07054300
 Mg               0    2.40492900   -2.61165600    0.16656000
 C                0   -4.99276500   -2.39177100    0.56605700
 C                0   -6.28446500   -2.02699300    0.81507400
 H                0   -4.29280800   -2.67048500    1.34275000
 H                0   -6.68015000   -2.00840900    1.82252000
 N                0   -4.50020000   -2.41194100   -0.69362000
 N                0   -6.63635100   -1.77927700   -1.56659600
 C                0   -7.06390000   -1.65957000   -0.32560800
 C                0   -5.38359800   -2.28776700   -1.81664600
 N                0   -8.34522400   -1.18756900   -0.14899300
 H                0   -8.55344100   -0.72391300    0.72237800
 H                0   -8.74406000   -0.76438400   -0.97567900
 O                0   -4.97993600   -2.60927600   -2.92623100
 H                0    6.82703200    4.73063100   -2.01940900
 H                0   -0.16058500    6.86260800    2.88992500

