%nprocshared=8
%mem=30GB
# freq b3lyp/6-31g(d,p) empiricaldispersion=gd3

M1 TS1 opt4

-1 1
 C               -1    4.26553800   -5.09100100    0.18697200
 C                0    2.87871200   -5.01215900   -0.43349900
 O                0    2.42674500   -3.83860400   -0.68232600
 O                0    2.22789500   -6.07825100   -0.56399600
 H                0    4.93337600   -4.31544100   -0.19602200
 H                0    4.70586600   -6.08127400    0.05292900
 C               -1   -0.52569900   -1.44424200    3.98720600
 C                0   -0.33817600   -2.71791000    3.18532200
 O                0    0.05645400   -3.74165500    3.79679900
 O                0   -0.51842000   -2.63554000    1.91901600
 H                0   -0.72497300   -1.67189200    5.03633100
 H                0   -1.29528000   -0.79149000    3.57532000
 C               -1    3.93515800    5.79544200    1.34649200
 C                0    3.56302900    4.50697400    0.61615100
 O                0    3.05457900    3.58955100    1.38121700
 O                0    3.72045100    4.41513300   -0.61207900
 H                0    4.50597500    6.45487300    0.69086300
 H                0    4.50338100    5.56838700    2.25298000
 C               -1    8.16182300    0.43375200   -2.42815600
 C                0    7.62881000    0.22108600   -0.99970500
 C                0    6.23140400   -0.30807300   -0.96124700
 C                0    5.04597500    0.24242800   -0.54772600
 N                0    5.88689400   -1.57028100   -1.43672600
 C                0    4.54395200   -1.73063300   -1.29349600
 N                0    4.01042800   -0.64868100   -0.75659900
 H                0    7.52786300    1.13883800   -2.97339200
 H                0    8.30424900   -0.45250600   -0.45312600
 H                0    7.63853300    1.17159900   -0.45723500
 H                0    6.52381200   -2.25888900   -1.80653000
 H                0    4.85183000    1.21793300   -0.12804200
 H                0    3.98762100   -2.62831800   -1.53029200
 C                0   -2.93698500    0.36817900    1.71701900
 O                0   -2.02137500    1.23416600    2.37319400
 C                0   -2.24886300   -0.30272100    0.53529400
 O                0   -3.02870500   -1.39046900   -0.04522800
 C                0   -1.98065300    0.66632100   -0.61893700
 O                0   -0.75818800    0.33911200   -1.27899900
 C                0   -3.16685800    0.44168500   -1.56301700
 C                0   -3.68104100   -0.97093200   -1.22701500
 H                0   -3.47451600   -1.68843600   -2.02478200
 H                0   -3.95115800    1.17808200   -1.37299100
 H                0   -1.95300600    1.70226700   -0.27605800
 H                0   -1.33843300   -0.76790200    0.90754100
 H                0   -3.81451700    0.94723300    1.38839700
 H                0   -2.86912800    0.52840700   -2.60629100
 H                0   -3.28755800   -0.40902000    2.41271400
 P                0    0.63508400    1.07666800   -0.61873700
 C                0    0.42787600    3.72555600   -0.46498400
 O                0    0.19542100    2.53135500   -1.22363700
 C                0   -0.83246900    4.58141800   -0.48098700
 O                0   -1.94627800    3.87764100    0.07304600
 C                0   -0.64549000    5.83267100    0.39765100
 O                0   -1.52457600    6.89611700    0.02664800
 C                0   -1.10688400    5.31738400    1.76189200
 C                0   -2.26730400    4.39144500    1.38005100
 O                0    1.49015200    0.11457900   -1.58257900
 O                0    2.45169900    1.89002000   -0.22231400
 O                0    0.45969900    0.84259900    0.87617100
 H                0   -0.29646500    4.76007600    2.24119700
 H                0    0.40050300    6.17463100    0.40446300
 H                0    0.68797100    3.47691900    0.56472600
 H                0   -2.38758800    3.54012900    2.05463800
 H                0   -1.40616100    6.13928300    2.41671400
 H                0   -1.08110900    4.84613900   -1.51909100
 H                0    1.26616000    4.27400600   -0.90646200
 H                0    8.17456400   -0.50554700   -2.99258600
 H                0    9.18363800    0.82687800   -2.41169400
 H                0   -1.40188000    7.05978100   -0.91740100
 H                0    2.70655100    2.65971400    0.66269900
 H                0   -1.14198200    1.15129300    1.94722300
 H                0    2.79389100    2.41427000   -0.96712100
 O                0   -0.48505600   -2.39994600   -0.96767700
 H                0   -1.37320500   -2.36080500   -0.56565900
 H                0   -0.33551400   -1.47520700   -1.26730600
 O                0    1.54708300   -4.67062600    1.96242900
 H                0    1.37643700   -5.57270300    1.66293400
 O                0    1.86280600   -1.55786900    1.04011100
 H                0    2.63440600   -1.27613900    0.51176000
 O                0   -0.17807700   -5.03524000   -0.36521900
 H                0   -0.45391800   -4.64293900   -1.20580000
 H                0    0.93779100   -4.48059300    2.75508700
 H                0    1.33362300   -0.73995400    1.18695600
 H                0    0.64790500   -5.56112400   -0.58564400
 H                0    2.42308100    0.00285400   -1.26360700
 H                0   -3.20743900    4.95579200    1.31666700
 Mg               0    0.80999600   -3.27751000    0.50804800
 C                0   -5.70452800   -1.27523500    0.19186900
 C                0   -7.05915300   -1.28980600    0.35576500
 H                0   -5.00381800   -1.48512500    0.98968000
 H                0   -7.50513300   -1.51941000    1.31504600
 N                0   -5.15628900   -1.00529300   -1.01349100
 N                0   -7.32559900   -0.77213700   -1.99941700
 C                0   -7.84142800   -1.01486000   -0.80870400
 C                0   -5.96522400   -0.77609300   -2.17305200
 N                0   -9.21255900   -1.03700800   -0.72189700
 H                0   -9.63595500   -0.87090400    0.17776500
 H                0   -9.69084700   -0.64632500   -1.52110200
 O                0   -5.39860400   -0.58538600   -3.24320400
 H                0    3.01647200    6.30381300    1.66127800
 H                0    0.41862700   -0.88982500    3.92956400
 H                0    4.12034000   -4.90508300    1.25623400

