%chk=Model3_TS1_ctsopt1.chk
%nprocshared=8
%mem=32GB
# opt=(calcfc,ts,noeigen) b3lyp/6-31g(d,p) empiricaldispersion=gd3

Model 3 freeze opt TS1

-1 1
 C               -1    7.00433700    0.13362400    0.36741500
 C                0    7.23744800   -0.19805200   -1.11828500
 C                0    6.23354200   -1.24501500   -1.60577800
 O                0    4.99304700   -0.93930300   -1.45161600
 O                0    6.64888600   -2.33480000   -2.06114500
 H                0    7.68728000    0.92195900    0.70446500
 H                0    7.11346600    0.70828200   -1.72958000
 H                0    8.24997500   -0.57253800   -1.29086700
 C               -1    3.19460100   -1.06322700    4.05701300
 C                0    2.74082700   -2.51939400    3.82071700
 C                0    3.55486500   -3.09395500    2.67551200
 O                0    4.72143200   -3.49216600    2.92403700
 O                0    3.04441000   -3.03698100    1.49608600
 H                0    3.01820200   -0.44710000    3.17415800
 H                0    4.26373900   -1.02960100    4.28911200
 H                0    2.93216100   -3.11214000    4.72122200
 H                0    1.67473100   -2.53094400    3.58978700
 C               -1   -1.75889000    5.35306000    4.01679400
 C                0   -2.62663300    4.41804700    3.17434300
 C                0   -1.94281200    3.83099500    1.93627500
 O                0   -0.66657700    3.68775300    2.02318900
 O                0   -2.64391800    3.50607700    0.96124700
 H                0   -0.84269800    4.84398700    4.32457800
 H                0   -2.94529100    3.55817100    3.78045200
 H                0   -3.54297400    4.91227300    2.83698100
 C               -1   -5.82854700    4.05950700    0.84773100
 C                0   -5.93805900    2.81129100    1.73902000
 C                0   -5.67413100    1.54278000    0.93384400
 N                0   -4.37605200    1.22226100    0.76985500
 O                0   -6.61907100    0.89281200    0.45955100
 H                0   -4.79900000    4.18796900    0.50880200
 H                0   -5.22406900    2.89061800    2.56571100
 H                0   -6.94476700    2.71848500    2.15519900
 H                0   -3.65694000    1.90678500    1.00310200
 H                0   -4.11227100    0.48947400    0.11892200
 C               -1    4.96151900    6.55615300   -2.22130400
 C                0    4.92433800    5.74191000   -0.91381300
 C                0    4.41225400    4.34616100   -1.08594700
 C                0    3.16117400    3.80419200   -0.93050000
 N                0    5.20144100    3.28619200   -1.51542300
 C                0    4.42383300    2.17160000   -1.59390500
 N                0    3.18215100    2.46083600   -1.24599900
 H                0    3.96027200    6.62914500   -2.65547800
 H                0    5.92623400    5.71695000   -0.46484300
 H                0    4.27912800    6.24866200   -0.18871600
 H                0    6.19567000    3.31545100   -1.68369400
 H                0    2.24515700    4.27350100   -0.60359300
 H                0    4.78386000    1.18075700   -1.84934100
 C                0   -1.32805100   -1.77906900    2.64498100
 O                0   -0.23804200   -1.20820000    3.32449300
 C                0   -0.94963400   -2.53681000    1.35542500
 O                0   -1.83158400   -3.69348600    1.24509800
 C                0   -1.15439100   -1.80018700    0.01389200
 O                0   -0.05524700   -1.04933700   -0.47610700
 C                0   -1.46292700   -2.94482300   -0.94740300
 C                0   -2.33087100   -3.83943400   -0.06831900
 H                0   -2.31881600   -4.89064200   -0.35753700
 H                0   -1.97146500   -2.62576900   -1.85575600
 H                0   -2.02869000   -1.14955900    0.09151600
 H                0    0.08842100   -2.88409200    1.45124100
 H                0   -2.10231000   -1.02730400    2.40805200
 H                0   -0.53724000   -3.46375300   -1.21712000
 H                0   -1.77735400   -2.51241300    3.32404200
 P                0    0.27893100    0.55942700    0.03155700
 C                0   -1.73093100    1.63226000   -1.28231000
 O                0   -1.26831000    1.04419300   -0.05093200
 C                0   -2.24221500    0.56703700   -2.24757600
 O                0   -3.34163600   -0.15896400   -1.66254400
 C                0   -2.78150800    1.18864200   -3.55026300
 O                0   -2.64015800    0.31675400   -4.66927300
 C                0   -4.27709600    1.30242400   -3.25431400
 C                0   -4.53522700    0.02605700   -2.45779600
 O                0    1.15388300    0.72396700   -1.29501600
 O                0    0.63969800    2.55690700    0.33421300
 O                0    0.90800100    0.29162600    1.39156100
 H                0   -4.46918500    2.18566900   -2.63588200
 H                0   -2.31381000    2.16376200   -3.75577200
 H                0   -2.51522900    2.32898300   -0.99129200
 H                0   -5.38257900    0.10448400   -1.77282400
 H                0   -4.86399300    1.37145100   -4.17307100
 H                0   -1.43289600   -0.14469100   -2.45360100
 H                0   -0.91807000    2.19932000   -1.74614000
 H                0    5.61193900    6.08229600   -2.96429000
 H                0    5.33528400    7.56913100   -2.03982200
 H                0   -2.29449500    5.68997300    4.91104800
 H                0   -1.46577600    6.23871500    3.44303200
 H                0   -6.49184000    3.96987800   -0.01951200
 H                0   -6.12248000    4.95604500    1.40494500
 H                0   -1.73033100   -0.00801400   -4.68244000
 H                0    5.97596400    0.46410200    0.52871800
 H                0    7.15051700   -0.75540800    0.98192600
 H                0   -0.12758300    3.10573800    1.12101700
 H                0    0.19710900   -0.57894100    2.71113900
 H                0    2.63711600   -0.62227800    4.88937800
 H                0    1.44103000    2.51556500    0.87549000
 O                0    2.03813800   -2.64884600   -0.94869700
 H                0    1.82569100   -3.17125900   -0.15519000
 H                0    1.34677500   -1.94131700   -0.93325900
 O                0    5.81699900   -2.74094100    0.78054900
 H                0    5.50715100   -3.19357200    1.64585000
 O                0    3.43174800   -0.36865300    0.70497100
 H                0    3.55214900    0.35709200    0.07845300
 O                0    4.49845300   -3.78089300   -1.52686600
 H                0    3.78007800   -3.72778200   -2.17208300
 H                0    6.29696000   -3.38220700    0.24246200
 H                0    2.51826800   -0.25785700    1.07137500
 H                0    5.29903400   -3.34837200   -1.94668200
 H                0    1.82039000    1.48005800   -1.27239000
 H                0   -4.67438800   -0.84447800   -3.10679500
 Mg               0    3.98527200   -2.20608000   -0.13097000
 C                0   -4.31413100   -2.64221800    0.84533600
 C                0   -5.53125200   -2.06379800    0.67351700
 H                0   -3.73714300   -2.54324800    1.75370100
 H                0   -5.97979300   -1.43787700    1.43085200
 N                0   -3.75375300   -3.39362500   -0.13397500
 N                0   -5.65164100   -3.03559700   -1.54856200
 C                0   -6.15563400   -2.26074500   -0.60026800
 C                0   -4.43750700   -3.64146900   -1.36570900
 N                0   -7.33629300   -1.61572000   -0.84926600
 H                0   -7.41606100   -0.71008100   -0.39161200
 H                0   -7.61096100   -1.64407000   -1.82198000
 O                0   -3.88029700   -4.35021500   -2.20200500

