%chk=Model3_TS2_tsopt3.chk
%nprocshared=8
%mem=25GB
# opt=(calcfc,ts,noeigen) b3lyp/6-31g(d,p) empiricaldispersion=gd3

Model 3 freeze opt TS1

-1 1
 C               -1    6.31762200   -2.30250200    1.75071000
 C                0    7.16839600   -1.80550900    0.58278700
 C                0    6.38859300   -1.02486200   -0.47132900
 O                0    5.28826100   -0.45003000   -0.06822900
 O                0    6.82356800   -0.92431500   -1.62474000
 H                0    6.93645300   -2.81389600    2.49631600
 H                0    7.96092600   -1.13376100    0.94283600
 H                0    7.67468100   -2.62823100    0.06972000
 C               -1    1.53262900   -3.66306400    3.94504200
 C                0    1.69241400   -4.44165100    2.64040300
 C                0    2.19278700   -3.64319800    1.43516400
 O                0    2.07572700   -4.17363400    0.30162800
 O                0    2.73700300   -2.50085700    1.65456500
 H                0    0.76024600   -2.89847800    3.83193900
 H                0    2.46525300   -3.16028900    4.21367100
 H                0    2.40888100   -5.26573400    2.76565900
 H                0    0.75057800   -4.91140500    2.34155700
 C               -1   -2.42811900    3.36890400    4.70153500
 C                0   -1.24589800    3.74612300    3.81718800
 C                0   -1.57187400    3.70712900    2.34219000
 O                0   -0.66556200    4.35982700    1.61772100
 O                0   -2.53730400    3.12543800    1.86710300
 H                0   -3.25709800    4.07527200    4.58688300
 H                0   -0.83783000    4.73289800    4.05995800
 H                0   -0.43501800    3.01779100    3.93814400
 C               -1   -5.60308300    3.74221100    0.45210900
 C                0   -5.78833700    2.57984000    1.44324800
 C                0   -5.45638500    1.25813200    0.76125300
 N                0   -4.14170500    1.03525500    0.57514900
 O                0   -6.34907500    0.49381100    0.36445100
 H                0   -4.54789300    3.84979800    0.18566600
 H                0   -5.12848700    2.73317900    2.30352600
 H                0   -6.82380800    2.51907000    1.78697200
 H                0   -3.44745700    1.71351100    0.87214700
 H                0   -3.84098200    0.28142900   -0.03338200
 C               -1    5.83134500    4.83904200    0.80971800
 C                0    6.01479200    3.54771800    0.00254100
 C                0    4.82181000    3.18413600   -0.83196000
 C                0    3.76806500    3.90713300   -1.34944300
 N                0    4.60776200    1.88758700   -1.26065800
 C                0    3.46476000    1.86817800   -1.97698500
 N                0    2.92177700    3.07615000   -2.06421000
 H                0    4.97553200    4.75849300    1.48695500
 H                0    6.90182100    3.63963700   -0.64000800
 H                0    6.23094000    2.71405700    0.68369900
 H                0    5.08981800    1.02127200   -0.95393400
 H                0    3.57203100    4.96499000   -1.24777200
 H                0    3.02374600    0.95344400   -2.34319200
 C                0   -0.83593900   -0.12193300    2.43513000
 O                0    0.02186800    0.94527800    2.78547000
 C                0   -0.24016700   -1.10843100    1.40860400
 O                0   -0.73042700   -2.44495200    1.75367800
 C                0   -0.66076500   -0.94228000   -0.07319700
 O                0    0.11619000   -0.09226200   -0.90053000
 C                0   -0.66629300   -2.38397900   -0.58235000
 C                0   -1.22913200   -3.12589300    0.62064200
 H                0   -0.93147200   -4.17361700    0.65958100
 H                0   -1.25744000   -2.52291900   -1.48556900
 H                0   -1.68072700   -0.55882900   -0.09827800
 H                0    0.84762400   -1.11952100    1.52213500
 H                0   -1.81188100    0.24755300    2.07947900
 H                0    0.35306100   -2.74383400   -0.73981800
 H                0   -1.01293900   -0.68911800    3.35569000
 P                0   -0.00252800    1.97044000   -0.85046600
 C                0   -2.36246100    1.80039600   -2.00754600
 O                0   -1.59751600    1.72140300   -0.78669900
 C                0   -2.50262100    0.42248500   -2.65544500
 O                0   -3.27522300   -0.45187500   -1.81683200
 C                0   -3.24798900    0.48492800   -3.99985200
 O                0   -2.90245200   -0.59737900   -4.85758400
 C                0   -4.69823400    0.26806400   -3.56668500
 C                0   -4.54835400   -0.75428500   -2.43975100
 O                0    0.58519700    1.78620800   -2.33500600
 O                0   -0.21917100    3.67397400   -0.97169600
 O                0    0.83095700    1.93968500    0.41487600
 H                0   -5.12126000    1.20549600   -3.18893200
 H                0   -3.09412200    1.44987500   -4.50756100
 H                0   -3.34015400    2.18685700   -1.71213100
 H                0   -5.32323700   -0.66460300   -1.67521700
 H                0   -5.31323600   -0.08887500   -4.39583500
 H                0   -1.49917300   -0.00459800   -2.76398800
 H                0   -1.88729000    2.50339100   -2.69757500
 H                0    5.65462500    5.69430500    0.14883800
 H                0    6.72383400    5.05466000    1.40455100
 H                0   -2.13436800    3.35243100    5.75537600
 H                0   -2.79796400    2.37727500    4.42935700
 H                0   -6.18441500    3.57263800   -0.46071700
 H                0   -5.93429700    4.68776200    0.89394600
 H                0   -1.93903400   -0.66605100   -4.88486600
 H                0    5.80686600   -1.47182800    2.24512300
 H                0    5.55599500   -3.00344700    1.40269400
 H                0   -0.75222800    4.13945100    0.65412200
 H                0    0.27006400    1.41042800    1.96272300
 H                0    1.24233300   -4.33100300    4.76395100
 H                0    0.66663700    4.07067800   -0.95984700
 O                0    2.28340300   -1.06078500   -1.38497800
 H                0    2.03489400   -1.90342900   -1.78763100
 H                0    1.14904600   -0.51192700   -1.13034700
 O                0    4.27067700   -3.10027000   -0.73559300
 H                0    3.47883000   -3.68030000   -0.58147100
 O                0    2.94655800    0.47098900    1.03345200
 H                0    3.64275500    1.13016700    0.92513300
 O                0    4.53271900   -1.70391800   -3.06847100
 H                0    3.80882000   -1.18754400   -2.67157400
 H                0    4.37486900   -2.89708300   -1.69395600
 H                0    2.10611800    0.93808700    0.78626600
 H                0    5.35224500   -1.28763100   -2.72432200
 H                0    1.27955500    2.49246700   -2.47113200
 H                0   -4.51884300   -1.78240900   -2.81128700
 Mg               0    3.49963400   -1.35660900    0.19474900
 C                0   -3.41997000   -2.31690200    1.49210500
 C                0   -4.75929300   -2.12746100    1.35041100
 H                0   -2.84236300   -1.87579500    2.29159300
 H                0   -5.31813600   -1.49281800    2.02265200
 N                0   -2.72613100   -3.08185200    0.61653600
 N                0   -4.72667200   -3.54262200   -0.61643100
 C                0   -5.36739800   -2.72720500    0.20407900
 C                0   -3.38997100   -3.79251300   -0.43397100
 N                0   -6.68520400   -2.44324400   -0.05890100
 H                0   -6.94407600   -1.48669900    0.17022900
 H                0   -6.97214200   -2.74747900   -0.98029800
 O                0   -2.72311800   -4.54607600   -1.13719900

