%nprocshared=16
%mem=50GB
# freq b3lyp/6-31g(d,p)

Title Card Required

-1 1
 C               -1    6.54754600   -2.38882400   -0.28902000
 C                0    5.34999700   -2.06133100    0.60726000
 C                0    4.40629200   -1.13546500   -0.14988700
 N                0    3.11610900   -1.44763200   -0.15748900
 O                0    4.89496200   -0.15460000   -0.74978700
 H                0    6.22730600   -2.94458700   -1.17641000
 H                0    4.82880900   -2.96547800    0.93916600
 H                0    5.68839000   -1.53400000    1.50639400
 H                0    2.73170400   -2.18256600    0.42319300
 H                0    2.46707100   -0.90153400   -0.73359400
 C               -1    6.64596200    2.87303400   -0.45638500
 C                0    6.06540800    4.00426800    0.41961300
 C                0    4.73747400    4.48250900   -0.17193200
 O                0    3.68007600    3.85514700    0.18563200
 O                0    4.80127500    5.40023500   -1.02161500
 H                0    7.69007900    2.67312900   -0.17804300
 H                0    5.91356600    3.66802700    1.45353400
 H                0    6.75780400    4.85105300    0.43581800
 C               -1    4.08850300   -0.07871200   -4.23818100
 C                0    2.53576000   -0.08780600   -4.25079100
 C                0    1.90454000    0.57518000   -3.01188600
 O                0    1.55054500   -0.17889900   -2.06704200
 O                0    1.82865200    1.84830200   -2.99767500
 H                0    4.48084400   -0.47945500   -3.29842700
 H                0    4.48989000    0.93080300   -4.37206200
 H                0    2.17837500    0.43241000   -5.14539500
 H                0    2.18077500   -1.12197600   -4.28292100
 C               -1    1.14587500   -5.71548700   -5.28785100
 C                0    0.18233100   -6.16564500   -4.18197800
 C                0   -0.26163000   -4.98788900   -3.34930700
 C                0   -1.56194700   -4.47715400   -3.40849600
 C                0    0.67647300   -4.30660000   -2.56198200
 C                0   -1.92293800   -3.33462800   -2.69651400
 C                0    0.33852700   -3.17015600   -1.84210800
 C                0   -0.97370800   -2.68337200   -1.90223000
 O                0   -1.35963200   -1.58745500   -1.20909500
 H                0    0.66335600   -4.98053800   -5.94012900
 H                0   -0.68821200   -6.66292700   -4.62660700
 H                0    0.68103600   -6.91547300   -3.55178200
 H                0   -2.30686600   -4.97973400   -4.02182900
 H                0    1.70217500   -4.66657200   -2.53101500
 H                0   -2.93592000   -2.94837500   -2.71879900
 H                0    1.07026500   -2.63396200   -1.25791100
 H                0   -0.65307100   -1.32209400   -0.54395900
 C               -1   -6.31532200   -1.71257000   -2.71117900
 C                0   -5.58474100   -0.35727300   -2.74461100
 C                0   -5.40083900    0.33165900   -1.39384700
 N                0   -4.93531000   -0.44031300   -0.39502400
 O                0   -5.62467400    1.54492700   -1.25097800
 H                0   -5.76764000   -2.45977700   -2.12960300
 H                0   -4.57479900   -0.47070900   -3.16325400
 H                0   -6.11744200    0.35745100   -3.37761800
 H                0   -4.68798300   -1.42502800   -0.48936600
 H                0   -4.74148800   -0.02807800    0.50685800
 C               -1    1.86872400   -6.84909200   -0.37268400
 C                0    2.38133800   -5.55275700    0.25071800
 C                0    1.31944700   -4.75839400    0.99206600
 O                0    1.84639400   -3.67776100    1.57825100
 O                0    0.14123600   -5.06361600    1.05648300
 H                0    1.49297800   -7.52994300    0.39657300
 H                0    3.20244400   -5.73660800    0.95464700
 H                0    2.79288900   -4.88011900   -0.51134400
 C               -1   -3.19744200   -6.13257000    1.07573300
 C                0   -2.95659800   -5.23354100   -0.14242000
 C                0   -3.31255700   -3.79532700    0.18994700
 N                0   -2.49852100   -3.18472200    1.07405600
 O                0   -4.34259500   -3.26665200   -0.26087100
 H                0   -2.51591200   -5.86931800    1.88906100
 H                0   -1.90843900   -5.29357000   -0.44776800
 H                0   -3.58222900   -5.53136000   -0.98602400
 H                0   -1.57506100   -3.56556300    1.24992400
 H                0   -2.61712500   -2.18941600    1.22359800
 C               -1    6.16186600   -1.15519300    5.51535900
 C                0    6.44218400   -0.29290400    4.26367300
 C                0    5.22011100    0.20661500    3.54028100
 C                0    3.88414700   -0.03650100    3.69932700
 N                0    5.28648600    1.08668100    2.45651000
 C                0    4.04672200    1.35105700    1.98765000
 N                0    3.19263700    0.67734900    2.74040800
 H                0    5.59528800   -2.05382000    5.25236100
 H                0    7.05590200    0.57087300    4.55301000
 H                0    7.05601000   -0.87313500    3.56026000
 H                0    6.12301600    1.44440100    2.01694400
 H                0    3.36579800   -0.65693000    4.41098900
 H                0    3.79300400    2.03034600    1.17331100
 C                0   -2.33012900    1.54962700   -2.48330500
 O                0   -2.15873100    0.26469400   -3.04811700
 C                0   -1.36200800    1.89021300   -1.34408100
 O                0   -1.51699100    3.33446500   -1.13996200
 C                0   -1.65512900    1.29054400    0.05101600
 O                0   -0.54924600    1.32583500    0.91465500
 C                0   -2.72176300    2.26368300    0.58427200
 C                0   -2.10304400    3.58353900    0.15365900
 H                0   -1.31526200    3.87224700    0.84788700
 H                0   -3.69806300    2.08021100    0.12963300
 H                0   -2.08000100    0.28648000   -0.03761900
 H                0   -0.33466500    1.69049400   -1.65476300
 H                0   -3.36044200    1.71260000   -2.13914900
 H                0   -2.79788800    2.18666700    1.66977300
 H                0   -2.14323400    2.28162700   -3.27814100
 P                0   -0.05922900   -0.68803900    2.04532400
 C                0   -2.23548400   -0.86348800    3.54382900
 O                0   -1.68170300   -0.58398000    2.26615100
 C                0   -3.69195400   -0.41117100    3.52666000
 O                0   -4.32659900   -0.88336900    2.33727200
 C                0   -4.48676500   -1.00867100    4.70401400
 O                0   -5.58768400   -0.19077400    5.09444400
 C                0   -5.06929500   -2.27837600    4.07436200
 C                0   -5.38638600   -1.80395700    2.65664100
 O                0    0.73978600    0.18904200    2.99933500
 O                0    0.11610900   -2.21644700    2.89038600
 O                0    0.33397400   -1.18224200    0.67598300
 H                0   -4.31309400   -3.06909800    4.05168100
 H                0   -3.83422700   -1.22210200    5.56537300
 H                0   -2.17550300   -1.94012100    3.74362000
 H                0   -5.37440400   -2.58803600    1.89680300
 H                0   -5.94329400   -2.63106300    4.62671700
 H                0   -3.73019000    0.68751200    3.52596300
 H                0   -1.69138600   -0.32585700    4.33289500
 H                0    5.58544500   -0.59337400    6.25643600
 H                0    7.10412100   -1.46635200    5.97277600
 H                0    2.66638000   -7.35372400   -0.92619200
 H                0    1.04388400   -6.63615200   -1.05665000
 H                0    1.47884000   -6.55807100   -5.90670700
 H                0    2.03431300   -5.23871400   -4.86260100
 H                0   -7.31390600   -1.61073300   -2.27161800
 H                0   -4.22642600   -6.03662400    1.44018800
 H                0   -3.02471300   -7.18431800    0.82339000
 H                0   -5.26045800    0.70905400    5.22267100
 H                0    7.01618900   -1.46296300   -0.62817500
 H                0    7.28985300   -2.99526800    0.24086200
 H                0   -6.43384300   -2.10122800   -3.72835600
 H                0    6.08304900    1.94366000   -0.36472700
 H                0    6.61745400    3.15866600   -1.50831500
 H                0    1.12420500   -3.13511800    2.03327400
 H                0   -1.93738900   -0.36445600   -2.33551000
 H                0    4.47348600   -0.69030100   -5.06114400
 H                0    0.43624600   -2.01239300    3.77896600
 O                0    0.81125000    4.48058200   -1.05038200
 H                0   -0.09384700    4.09338300   -1.19559100
 H                0    0.69620200    5.03806500   -0.26662500
 O                0    4.23265100    2.16886400   -1.94185200
 H                0    3.90171000    2.08135300   -2.84624400
 O                0    1.65617700    1.67357700    0.00400700
 H                0    0.53715200    1.58243800    0.45033400
 O                0    2.97733900    4.56858100   -2.68320500
 H                0    2.17991500    5.11499000   -2.63783800
 H                0    4.36487600    1.25771000   -1.59246100
 H                0    1.59198200    0.89082900   -0.57959300
 H                0    3.66161600    5.04707600   -2.12460000
 H                0    2.10634700    0.61262400    2.65963300
 H                0   -6.34821200   -1.27685500    2.62555800
 Mg               0    2.38412500    3.05713500   -1.25078900
 C                0   -4.23430100    4.61643800   -0.49722700
 C                0   -5.01262800    5.71485400   -0.69910600
 H                0   -4.58403500    3.61537000   -0.73283000
 H                0   -6.00897600    5.62260200   -1.11239600
 N                0   -2.98135500    4.73992400    0.02049500
 N                0   -3.20682600    7.12446300    0.10194900
 C                0   -4.43985300    6.97658700   -0.34526600
 C                0   -2.38863000    6.03305500    0.22791800
 N                0   -5.17972800    8.12048100   -0.50343500
 H                0   -6.18419800    8.04792100   -0.53008400
 H                0   -4.79019200    8.94726700   -0.07468000
 O                0   -1.19911200    6.11023200    0.52715600

