%nprocshared=8
%mem=6GB
# 6-311+g(2df,2p) m062x

SA Asp M1 IC

-1 1
 C               -1    5.81553800   -1.86475300    1.19341400
 C                0    6.10787200   -2.66977300   -0.08262900
 C                0    4.84029500   -3.27906400   -0.70154900
 O                0    3.83225600   -2.48927500   -0.81608500
 O                0    4.85267700   -4.48137300   -1.03421800
 H                0    6.74556800   -1.52511500    1.66488300
 H                0    6.58242600   -2.03169300   -0.84611900
 H                0    6.80844100   -3.48515800    0.11727000
 C               -1    1.42258100   -0.77677600    4.20578000
 C                0    0.35519900   -1.83252800    3.86812900
 C                0    1.00242100   -2.95668300    3.06160400
 O                0    1.86937500   -3.65410700    3.65121300
 O                0    0.68437300   -3.06630700    1.82902000
 H                0    1.84713900   -0.35174200    3.29327200
 H                0    2.23476500   -1.24001000    4.77305700
 H                0   -0.05106700   -2.25442100    4.79521900
 H                0   -0.45997900   -1.37580500    3.30362100
 C               -1   -0.17651100    7.02967100    2.71996500
 C                0    0.48140700    5.68070400    2.99014500
 C                0    0.70238700    4.86311400    1.73009400
 O                0    1.26498300    3.69333800    1.99324400
 O                0    0.38504900    5.25164700    0.61009800
 H                0    0.43458400    7.63164500    2.04189400
 H                0    1.45509900    5.79487300    3.48190500
 H                0   -0.11874100    5.06599400    3.67172200
 C               -1    7.14060600    4.33880500   -2.25380000
 C                0    7.31192900    2.89839700   -1.75661000
 C                0    6.03442400    2.11736300   -1.79345200
 C                0    4.72702000    2.48100900   -2.00357400
 N                0    5.98564100    0.74554700   -1.59835900
 C                0    4.69238300    0.33465100   -1.69916800
 N                0    3.91131400    1.37117000   -1.94579400
 H                0    6.42406700    4.88371700   -1.63136600
 H                0    8.06716700    2.38795900   -2.37064800
 H                0    7.71341100    2.90990300   -0.73313400
 H                0    6.76437100    0.14246400   -1.37970800
 H                0    4.32468400    3.46531300   -2.18777400
 H                0    4.37379900   -0.69876100   -1.56983100
 C                0   -2.56867100   -0.79038300    1.56286500
 O                0   -1.83902200    0.36226700    1.94393100
 C                0   -1.90455600   -1.59285800    0.44218800
 O                0   -2.66813800   -2.82432400    0.23007700
 C                0   -1.84977300   -0.86912700   -0.92695300
 O                0   -0.54890800   -0.57500900   -1.38757100
 C                0   -2.56563600   -1.83653600   -1.89200300
 C                0   -3.36269700   -2.77063200   -0.98857300
 H                0   -3.44951300   -3.78466000   -1.38631700
 H                0   -3.17023700   -1.33304000   -2.64235900
 H                0   -2.39228500    0.07449800   -0.88213100
 H                0   -0.91016400   -1.90157000    0.77260500
 H                0   -3.56762900   -0.46109300    1.24740200
 H                0   -1.80386000   -2.42878700   -2.40626700
 H                0   -2.69921900   -1.46044300    2.42747700
 P                0    0.51692400    1.29191500   -0.76791000
 C                0   -1.65529600    2.69670800   -0.36412600
 O                0   -0.83720300    1.98768500   -1.32240800
 C                0   -3.01442900    2.99184900   -0.98473500
 O                0   -3.66633400    1.80117200   -1.42926200
 C                0   -3.94489000    3.62653900    0.07253100
 O                0   -4.92956100    4.48124800   -0.51000000
 C                0   -4.67292500    2.39601400    0.61670400
 C                0   -4.85152900    1.56455000   -0.65453600
 O                0    1.39649900    0.76043100   -1.95237600
 O                0    1.38673900    2.72497600   -0.44753000
 O                0    0.52336900    0.71786500    0.63402200
 H                0   -4.03104100    1.87561100    1.33430600
 H                0   -3.37555400    4.16038700    0.84800700
 H                0   -1.78107400    2.08895300    0.53539600
 H                0   -4.92941300    0.49002900   -0.47308200
 H                0   -5.61438600    2.66871500    1.09963000
 H                0   -2.88283200    3.65698700   -1.85105500
 H                0   -1.17422500    3.64483500   -0.09749800
 H                0    6.77016700    4.35370600   -3.28321700
 H                0    8.09271200    4.87598800   -2.22151600
 H                0   -0.31951400    7.58773300    3.65044600
 H                0   -1.15069700    6.89561300    2.24174800
 H                0   -4.46650700    5.13989100   -1.04380300
 H                0    5.20397500   -0.98535900    0.98039200
 H                0    5.25948400   -2.48283200    1.90085900
 H                0    1.36186300    3.18214200    1.13595500
 H                0   -0.93625500    0.34354100    1.55788600
 H                0    0.99439200    0.03945000    4.79822700
 H                0    1.02601700    3.50519100   -0.89461800
 O                0    0.61845500   -2.76192800   -1.09927200
 H                0   -0.13473000   -3.25445200   -0.74223700
 H                0    0.03895200   -1.46144100   -1.30864200
 O                0    3.38592900   -4.04359900    1.63535000
 H                0    3.43741200   -4.94776700    1.30090200
 O                0    2.45868600   -1.06226600    0.97658700
 H                0    3.13220600   -0.77530700    0.34646100
 O                0    2.20000100   -4.93457500   -0.84809600
 H                0    1.67147400   -4.42718400   -1.49500400
 H                0    2.84077700   -4.05812300    2.49435400
 H                0    1.70230800   -0.42795100    0.90133900
 H                0    3.14647100   -4.86801300   -1.14123400
 H                0    2.35866200    1.13729800   -1.96421500
 H                0   -5.73497500    1.88936900   -1.21997300
 Mg               0    2.06261100   -3.01699500    0.28574200
 C                0   -5.28824200   -2.21219200    0.49368700
 C                0   -6.55379400   -1.75073000    0.71427000
 H                0   -4.62306600   -2.52649100    1.28720900
 H                0   -6.96298000   -1.68551700    1.71437300
 N                0   -4.77802700   -2.29112100   -0.75685400
 N                0   -6.84890100   -1.52194000   -1.67688700
 C                0   -7.28718200   -1.35055000   -0.44580400
 C                0   -5.63216900   -2.12359500   -1.89681500
 N                0   -8.53542900   -0.78837100   -0.29945900
 H                0   -8.72625200   -0.29664800    0.56039900
 H                0   -8.89191500   -0.35494000   -1.14002500
 O                0   -5.23625200   -2.49391600   -2.99391000

