%nprocshared=8
%mem=30GB
# freq b3lyp/6-31g(d,p) empiricaldispersion=gd3

M1 TS1 opt4

-1 1
 C               -1    3.89216900   -5.53496100    0.09318600
 C                0    2.48119200   -5.36235300   -0.44576000
 O                0    2.11747900   -4.16557700   -0.73055600
 O                0    1.73391500   -6.37006100   -0.47980500
 H                0    4.59570300   -4.83017900   -0.35703000
 H                0    4.24247700   -6.56209300   -0.02899400
 C               -1   -0.24271300   -1.14711400    3.88081800
 C                0   -0.15827800   -2.51348200    3.23007800
 O                0    0.30083400   -3.46781700    3.90493100
 O                0   -0.51013500   -2.58056600    1.99798200
 H                0   -0.05320000   -1.21350700    4.95328100
 H                0   -1.20344000   -0.66526500    3.69226200
 C               -1    3.70944400    6.14417300    1.28009300
 C                0    4.77982600    5.06992700    1.03289000
 C                0    4.17318200    3.82722400    0.37845300
 O                0    3.39596400    3.14197500    1.15772500
 O                0    4.40854500    3.56769700   -0.81582600
 H                0    3.28106100    6.48645700    0.33151700
 H                0    5.57055000    5.45323100    0.38180900
 H                0    5.22438100    4.77239600    1.98940900
 C               -1    7.65471300   -0.66967200   -1.71364100
 C                0    6.21200400   -1.01529100   -1.54594600
 C                0    5.12806400   -0.28329500   -1.13341800
 N                0    5.70027700   -2.27823400   -1.82482800
 C                0    4.36208300   -2.26328000   -1.57990500
 N                0    3.98996100   -1.06895900   -1.15747200
 H                0    8.30189900   -1.28177700   -1.07282800
 H                0    7.81136800    0.37694900   -1.44315900
 H                0    6.22971600   -3.07781300   -2.13645400
 H                0    5.08427600    0.75501900   -0.83614900
 H                0    3.69616500   -3.11379400   -1.66552700
 C                0   -2.77850400    0.57629600    1.76458400
 O                0   -1.78161600    1.41657700    2.32783300
 C                0   -2.19248300   -0.19637000    0.58979500
 O                0   -3.08037100   -1.23979400    0.08753300
 C                0   -1.89438600    0.69964800   -0.61491100
 O                0   -0.73790800    0.24216100   -1.31318600
 C                0   -3.13842400    0.54066400   -1.49526900
 C                0   -3.73947300   -0.81831300   -1.09038600
 H                0   -3.60974600   -1.57665800   -1.86623500
 H                0   -3.85481000    1.33932500   -1.28833400
 H                0   -1.76256800    1.74224600   -0.31932100
 H                0   -1.30706900   -0.71749300    0.94749900
 H                0   -3.63243300    1.19475200    1.44637900
 H                0   -2.88895500    0.57592400   -2.55401500
 H                0   -3.14624900   -0.14142900    2.51442200
 P                0    0.75169700    0.85372200   -0.72863700
 C                0    0.78949800    3.51725600   -0.64120100
 O                0    0.42787600    2.33145400   -1.35783000
 C                0   -0.37973300    4.49479200   -0.70493900
 O                0   -1.55211100    3.93563200   -0.11066600
 C                0   -0.07772100    5.77599400    0.09167200
 O                0   -0.87438700    6.88235100   -0.33772900
 C                0   -0.56115600    5.38587800    1.48903600
 C                0   -1.79750900    4.53290700    1.17753400
 O                0    1.45873400   -0.20455300   -1.70966800
 O                0    2.60875200    1.47236100   -0.39012800
 O                0    0.59983100    0.66836000    0.77913300
 H                0    0.20905300    4.79767400    1.99714300
 H                0    0.99043700    6.03193000    0.07010500
 H                0    1.01889400    3.28323200    0.39962900
 H                0   -1.96349600    3.72641000    1.89633200
 H                0   -0.78464300    6.26900500    2.09228900
 H                0   -0.60672400    4.71461400   -1.75835600
 H                0    1.68455000    3.95917700   -1.09528400
 H                0    4.12543000    7.01758800    1.79379500
 H                0    2.90038400    5.73432800    1.89146700
 H                0   -0.75489100    6.97511100   -1.29172800
 H                0    2.93262600    2.21743500    0.47192900
 H                0   -0.92189000    1.21025300    1.90582100
 H                0    3.03391000    1.92211600   -1.14165100
 O                0   -0.66628200   -2.49551500   -0.89419300
 H                0   -1.52201500   -2.36349700   -0.44481500
 H                0   -0.46278300   -1.60096800   -1.24945900
 O                0    1.39117200   -4.76909100    2.01881300
 H                0    1.04027100   -5.65073100    1.84103500
 O                0    1.89626300   -1.76877900    0.92429300
 H                0    2.65647400   -1.56806600    0.35065500
 O                0   -0.54332800   -5.11696900   -0.14233400
 H                0   -0.86123500   -4.75353300   -0.98099200
 H                0    0.93607900   -4.41269900    2.85828600
 H                0    1.43337700   -0.90721900    1.06057300
 H                0    0.21802800   -5.72145000   -0.39803200
 H                0    2.40904600   -0.38732900   -1.47124600
 H                0   -2.69457100    5.16228000    1.10683600
 Mg               0    0.65203300   -3.40525400    0.53666600
 C                0   -5.72942400   -0.90246100    0.40293100
 C                0   -7.07518100   -0.80953500    0.60922000
 H                0   -5.01751000   -1.11848500    1.18914900
 H                0   -7.50261300   -0.95380000    1.59325300
 N                0   -5.20570800   -0.73977400   -0.83197600
 N                0   -7.38564100   -0.40076400   -1.76194500
 C                0   -7.87593700   -0.54274400   -0.54452500
 C                0   -6.03535400   -0.50947000   -1.97660400
 N                0   -9.24168900   -0.46350800   -0.41512000
 H                0   -9.62176000   -0.22043000    0.48638700
 H                0   -9.71885000   -0.08275600   -1.21977700
 O                0   -5.49368900   -0.41066700   -3.07171600
 H                0    3.82661700   -5.30328900    1.16124100
 H                0    0.51549300   -0.50773000    3.41596800
 H                0    7.99125800   -0.80151200   -2.74967200

