%chk=Model2_TS2_tsopt16.chk
%nprocshared=8
%mem=32GB
# opt=(calcfc,ts,noeigen) b3lyp/6-31g(d,p) empiricaldispersion=gd3

Model 2 TS2 opt

-1 1
 C               -1    2.63174100   -5.62624600   -0.76971300
 C                0    4.08819600   -5.34534800   -0.36175600
 C                0    4.48907600   -3.92073000   -0.74884900
 O                0    3.68556800   -2.99618100   -0.37549800
 O                0    5.51769500   -3.74131700   -1.44513600
 H                0    2.37238500   -6.67796100   -0.60003100
 H                0    4.21624100   -5.45853800    0.72587900
 H                0    4.77865700   -6.04464300   -0.84086100
 C               -1   -1.19446900   -3.15984500   -3.74166100
 C                0   -0.54842400   -1.93631700   -4.42715800
 C                0    0.96685000   -2.04787600   -4.30127200
 O                0    1.53297400   -2.95593400   -4.96947400
 O                0    1.54957400   -1.27953500   -3.46301500
 H                0   -2.28749700   -3.09973800   -3.78017500
 H                0   -0.88800000   -3.21365900   -2.69162500
 H                0   -0.81820500   -1.92831900   -5.48936100
 H                0   -0.87899400   -1.00308900   -3.96888500
 C               -1   -7.04024800   -0.46312500   -3.44399600
 C                0   -6.54556600    0.22635800   -2.16433500
 C                0   -5.05870000    0.48688300   -2.21775600
 C                0   -4.54900600    1.73859200   -2.58315700
 C                0   -4.14314000   -0.54577200   -1.96990300
 C                0   -3.17589300    1.96025300   -2.68236000
 C                0   -2.77065900   -0.34499900   -2.06402500
 C                0   -2.27754500    0.91980300   -2.41264300
 O                0   -0.94227500    1.16492800   -2.49659500
 H                0   -6.83523800    0.16014900   -4.32070900
 H                0   -7.08461000    1.17057700   -2.02044200
 H                0   -6.78857600   -0.40052200   -1.29683000
 H                0   -5.23726800    2.55809300   -2.77969000
 H                0   -4.50858600   -1.53483500   -1.70377300
 H                0   -2.78361400    2.94316100   -2.92387000
 H                0   -2.07522800   -1.13514800   -1.81789700
 H                0   -0.42322200    0.82099100   -1.68053800
 C               -1   -7.01494700   -1.29569000    1.58322200
 C                0   -5.74127700   -2.05052500    1.21487800
 C                0   -4.49317800   -1.54766300    1.91521600
 O                0   -3.43081200   -2.27010500    1.61355700
 O                0   -4.46896100   -0.57153600    2.66279600
 H                0   -7.23120400   -1.39066400    2.65180800
 H                0   -5.82545800   -3.12345700    1.42418200
 H                0   -5.53594200   -1.97680800    0.14160400
 C               -1    0.02445300   -5.39705100    5.95886800
 C                0    0.89744300   -5.72980500    4.74180600
 C                0    1.26341000   -4.52248100    3.93269200
 C                0    0.84376000   -3.21534600    3.96129200
 N                0    2.19333600   -4.56516700    2.90390500
 C                0    2.30498700   -3.31952100    2.36406400
 N                0    1.49832000   -2.48369900    2.99221000
 H                0   -0.91740400   -4.93450900    5.64803600
 H                0    1.81540900   -6.23186800    5.07904000
 H                0    0.37289400   -6.45720800    4.10567600
 H                0    2.68451600   -5.38248300    2.57441700
 H                0    0.10120800   -2.75842300    4.59636600
 H                0    2.95066200   -3.08973900    1.52011500
 C                0    0.98563300    4.07569800   -2.16593500
 O                0   -0.32399700    3.95227900   -2.68981900
 C                0    1.46132800    2.74793100   -1.58122200
 O                0    2.85762400    2.80476400   -1.18755300
 C                0    0.67610600    2.29629600   -0.33267200
 O                0    0.48136000    0.90018600   -0.37441400
 C                0    1.56682600    2.80391600    0.81648600
 C                0    2.98351700    2.82134100    0.22885400
 H                0    3.56668000    1.95696100    0.55145600
 H                0    1.27442900    3.82233200    1.09100800
 H                0   -0.29140400    2.81123600   -0.30213800
 H                0    1.39800300    1.98619400   -2.36441700
 H                0    0.98121200    4.85135000   -1.38540800
 H                0    1.50497700    2.17444000    1.69982800
 H                0    1.70177100    4.39506900   -2.94253600
 P                0   -0.47870400   -0.21558600    1.29356800
 C                0   -2.46730700    1.41116400    0.86355200
 O                0   -1.21452000    1.20924800    1.55342900
 C                0   -3.42022100    2.19466100    1.73842500
 O                0   -3.00716300    3.56754100    1.79939900
 C                0   -4.87630100    2.17458800    1.18291700
 O                0   -5.82467700    1.86825700    2.19997100
 C                0   -5.08360200    3.62203400    0.73257900
 C                0   -4.17242400    4.38294600    1.69588700
 O                0    0.95780800   -0.13885200    1.94304700
 O                0   -1.30538600   -1.01641600    2.58540700
 O                0   -0.86275300   -1.17344100    0.19899000
 H                0   -4.72514000    3.73974400   -0.29505800
 H                0   -4.97147900    1.47500200    0.34183300
 H                0   -2.27969600    1.96089500   -0.05996300
 H                0   -3.86099200    5.36971300    1.33932100
 H                0   -6.13714300    3.90771200    0.78672400
 H                0   -3.42280800    1.75951000    2.74555400
 H                0   -2.90740100    0.44669200    0.60392900
 H                0    0.53721700   -4.69828200    6.62671800
 H                0   -0.21318700   -6.30313300    6.52327600
 H                0   -7.86861200   -1.69207600    1.02487300
 H                0   -6.92361300   -0.22858200    1.36551100
 H                0   -8.11823000   -0.66093100   -3.40776800
 H                0   -6.52351200   -1.41698400   -3.59279000
 H                0   -5.54956300    1.00604300    2.56202000
 H                0    1.93701800   -5.01021500   -0.19596300
 H                0    2.48543100   -5.38554800   -1.82414100
 H                0   -2.59900200   -1.84391700    1.98885700
 H                0   -0.50694200    3.00143000   -2.82221700
 H                0   -0.86837000   -4.07874100   -4.23689400
 H                0   -1.60708600   -0.35620000    3.22572400
 O                0    2.75684300   -0.07338500   -0.97326000
 H                0    3.08657600    0.69673700   -1.45905700
 H                0    1.82253400    0.23753400   -0.66232900
 O                0    3.21644900   -3.56436000   -3.20313100
 H                0    2.68265700   -3.37641500   -4.05676500
 O                0    1.05228300   -2.54728400   -0.96771700
 H                0    1.35294500   -2.97193600   -0.15485000
 O                0    4.87537000   -1.31689400   -2.33143100
 H                0    5.01545500   -0.72961800   -1.57512000
 H                0    4.15095200   -3.67994100   -3.41084700
 H                0    0.31811700   -1.94058300   -0.67946200
 H                0    5.29632000   -2.17565100   -2.02840400
 H                0    1.17637800   -1.00890000    2.44555000
 H                0   -4.66292400    4.49792800    2.67615300
 Mg               0    2.77668900   -1.88563000   -1.96839200
 C                0    3.99084500    5.04649800   -0.23126400
 C                0    4.67644000    6.15796900    0.16644000
 H                0    3.61364100    4.90759100   -1.23626700
 H                0    4.88086700    6.96793600   -0.52224300
 N                0    3.76062800    4.02754700    0.62437000
 N                0    4.92202400    5.18363400    2.37300000
 C                0    5.13060200    6.16874900    1.52149300
 C                0    4.23197400    4.06315400    1.97885300
 N                0    5.86553700    7.23861600    1.97969100
 H                0    5.73665500    8.12832500    1.52276400
 H                0    5.97022700    7.26891500    2.98415400
 O                0    3.98622500    3.10914600    2.70479900

