%chk=Model1_TS1_tsf.chk
%nprocshared=8
%mem=32GB
# opt=(calcfc,ts,noeigen) b3lyp/6-31g(d,p) empiricaldispersion=gd3

M1 TS1 opt4

-1 1
 C               -1    6.22651000   -1.71962700    1.00468200
 C                0    6.48080600   -2.17922000   -0.43998300
 C                0    5.22545900   -2.80325300   -1.06762200
 O                0    4.16179100   -2.07789700   -1.01591700
 O                0    5.29538400   -3.94560700   -1.55765000
 H                0    7.13464200   -1.29895500    1.45322500
 H                0    6.78671300   -1.32454700   -1.06492900
 H                0    7.28983100   -2.91339800   -0.48641900
 C               -1    1.92087700   -0.89926000    4.22088800
 C                0    0.86120800   -1.92706500    3.78887200
 C                0    1.52136100   -2.97112900    2.88901300
 O                0    2.43002100   -3.67419200    3.40338600
 O                0    1.16739400   -3.01066200    1.66222800
 H                0    2.35031600   -0.40706300    3.34343000
 H                0    2.72968600   -1.40394800    4.75631700
 H                0    0.45324400   -2.43126000    4.67332200
 H                0    0.04413300   -1.42922500    3.26197300
 C               -1   -0.25901200    6.77387400    2.77881400
 C                0    0.38399700    6.97104000    1.40079900
 C                0    0.52784300    5.68206800    0.61289700
 O                0    1.03305800    4.69236100    1.34018800
 O                0    0.21791700    5.58545700   -0.57015100
 H                0   -1.27140100    6.36771800    2.68449500
 H                0   -0.18515100    7.66767700    0.78055600
 H                0    1.39313400    7.38659400    1.52145700
 C               -1    6.67194900    3.99397400   -1.11860400
 C                0    5.64302700    2.94296800   -1.37422800
 C                0    4.30967900    3.02696100   -1.68382400
 N                0    5.90840700    1.58076200   -1.34222000
 C                0    4.75998000    0.90738900   -1.62873100
 N                0    3.77952600    1.76596700   -1.84376600
 H                0    7.11618200    3.89924800   -0.12021100
 H                0    6.20934400    4.98144100   -1.18448900
 H                0    6.78661400    1.14503100   -1.10373800
 H                0    3.69696400    3.91073900   -1.77964900
 H                0    4.66525600   -0.17652200   -1.63177500
 C                0   -2.25650500   -0.97935000    1.68631000
 O                0   -1.58918200    0.22443700    2.02232400
 C                0   -1.61121400   -1.73442200    0.52296200
 O                0   -2.30497000   -3.01208300    0.34985300
 C                0   -1.68888000   -1.00345200   -0.84079800
 O                0   -0.44528500   -0.58238400   -1.35423100
 C                0   -2.35569900   -2.03103500   -1.77737100
 C                0   -3.04908900   -3.01343300   -0.84068100
 H                0   -3.08270100   -4.03317200   -1.23182800
 H                0   -3.02021600   -1.58124000   -2.51101600
 H                0   -2.31632600   -0.11593000   -0.76152400
 H                0   -0.57887100   -1.97656400    0.78712500
 H                0   -3.29482900   -0.72461000    1.43478300
 H                0   -1.56711300   -2.56796500   -2.31198200
 H                0   -2.28370000   -1.65342400    2.55715000
 P                0    0.47266900    1.40209200   -0.80457200
 C                0   -1.78405800    2.60251400   -0.28552200
 O                0   -0.99015500    1.91705800   -1.27421000
 C                0   -3.20453700    2.76593300   -0.81257600
 O                0   -3.76762700    1.51406500   -1.20540700
 C                0   -4.11790700    3.32252200    0.30229100
 O                0   -5.20782600    4.08693400   -0.21387100
 C                0   -4.70047000    2.03587100    0.89063300
 C                0   -4.88617900    1.18799200   -0.36812100
 O                0    1.31851300    0.95918800   -2.04990600
 O                0    1.16263800    2.94244300   -0.57367400
 O                0    0.64919500    0.85070600    0.59218200
 H                0   -3.97107600    1.57396900    1.56347900
 H                0   -3.54871700    3.90625200    1.04160300
 H                0   -1.79387800    2.02645900    0.64391100
 H                0   -4.86956800    0.11168900   -0.18435600
 H                0   -5.62857300    2.22828500    1.43431300
 H                0   -3.19193500    3.43059300   -1.68914000
 H                0   -1.36043800    3.59648300   -0.09650500
 H                0   -0.32604900    7.72609800    3.31418700
 H                0    0.32615600    6.07393800    3.37879100
 H                0   -4.84124600    4.76704100   -0.79380700
 H                0    5.43767300   -0.96469800    1.03967300
 H                0    5.88297900   -2.56088600    1.60958800
 H                0    1.12277000    3.87881100    0.75482700
 H                0   -0.72292100    0.28656700    1.56480200
 H                0    1.48620900   -0.13158800    4.87096000
 H                0    0.80640800    3.60810700   -1.18798300
 O                0    0.94286200   -2.65549500   -1.21534700
 H                0    0.26997600   -3.21387100   -0.79941300
 H                0    0.22376700   -1.40512200   -1.34375700
 O                0    3.86423900   -3.91551100    1.29237500
 H                0    3.81439700   -4.78317900    0.86952300
 O                0    2.71564200   -0.82401400    0.84969600
 H                0    3.34532700   -0.43278600    0.23017900
 O                0    2.71210500   -4.66150700   -1.19877600
 H                0    2.07342700   -4.15001600   -1.73690600
 H                0    3.36413800   -3.98320600    2.17389200
 H                0    1.90974200   -0.25043100    0.82804700
 H                0    3.61333400   -4.47407700   -1.56701700
 H                0    2.27837400    1.34131600   -2.01523400
 H                0   -5.82317700    1.44134400   -0.88195400
 Mg               0    2.48827900   -2.78965600    0.07470300
 C                0   -4.94513000   -2.57654000    0.71852600
 C                0   -6.22892900   -2.19987700    0.99015600
 H                0   -4.22756500   -2.83940800    1.48462800
 H                0   -6.59961900   -2.15476300    2.00624500
 N                0   -4.48323200   -2.62972800   -0.55189500
 N                0   -6.63737300   -2.00682600   -1.38730300
 C                0   -7.03427800   -1.85574300   -0.13982700
 C                0   -5.39365500   -2.52854300   -1.65559400
 N                0   -8.30879100   -1.37278900    0.05643500
 H                0   -8.49356400   -0.88739400    0.92123500
 H                0   -8.72526000   -0.96696900   -0.77027000
 O                0   -5.02035500   -2.88078100   -2.76634500
 H                0    7.48820200    3.95655000   -1.85056600

