%nprocshared=8
%mem=30GB
# freq b3lyp/6-31g(d,p) empiricaldispersion=gd3

Model 1 Minus a CH3 off of amino acids

-1 1
 C               -1   -2.14294900    5.96298900    0.38183000
 C                0   -0.84957500    5.40379500   -0.18554400
 O                0   -0.82834300    4.14048200   -0.42525300
 O                0    0.13094400    6.17359000   -0.29700700
 H                0   -3.01841600    5.42837200   -0.00009400
 H                0   -2.23308100    7.03459400    0.19401800
 C               -1    0.69193000    0.41121700    3.82246500
 C                0    1.00191000    1.80976400    3.30829300
 O                0    0.74348500    2.78533700    4.05086400
 O                0    1.48913300    1.88710400    2.12161400
 H                0    1.62504700   -0.13132800    4.01017500
 H                0    0.11697600   -0.12263600    3.05868400
 C               -1   -5.52831100   -4.43001500   -0.31955900
 C                0   -5.58366600   -2.88609300   -0.42004200
 O                0   -5.50909100   -2.22954000    0.64948900
 O                0   -5.68039100   -2.41985000   -1.59844200
 H                0   -4.59439800   -4.79831400   -0.76104700
 H                0   -6.34195800   -4.86676700   -0.90663800
 C               -1   -6.87065000    2.30436800   -1.93250100
 C                0   -5.39950900    2.09310300   -1.78796400
 C                0   -4.63335500    0.95483500   -1.72468200
 N                0   -4.49539500    3.15094400   -1.71376500
 C                0   -3.23800000    2.68500200   -1.61473100
 N                0   -3.31157400    1.35769100   -1.63054400
 H                0   -7.19864700    3.17726300   -1.35649200
 H                0   -7.37146500    1.40821200   -1.54667900
 H                0   -4.74304400    4.12888200   -1.70183700
 H                0   -4.93188200   -0.08943900   -1.70616000
 H                0   -2.33382200    3.27408900   -1.46651200
 C                0    3.25007300   -1.25234100    1.74785600
 O                0    2.44518300   -2.11540100    2.53858800
 C                0    2.46524700   -0.70319400    0.55845400
 O                0    3.31061000    0.13647100   -0.28403600
 C                0    1.94902100   -1.75850100   -0.41460100
 O                0    0.97943700   -1.14858400   -1.28839200
 C                0    3.17846700   -2.02648200   -1.27932900
 C                0    3.86164300   -0.64316000   -1.33817000
 H                0    3.67255900   -0.13868600   -2.28795400
 H                0    3.83728100   -2.75526100   -0.80045500
 H                0    1.53366000   -2.64304000    0.07006000
 H                0    1.67734000   -0.05305200    0.93558600
 H                0    4.11268800   -1.84294900    1.42178400
 H                0    2.92261900   -2.39300500   -2.27067600
 H                0    3.62385700   -0.39496900    2.32774000
 P                0   -0.52617700   -0.81168700   -0.77499100
 C                0   -2.43415600   -2.58838300   -0.50971000
 O                0   -1.39457800   -2.03999900   -1.34290700
 C                0   -1.97967500   -3.87957200    0.18792700
 O                0   -0.57701900   -3.83405600    0.49395300
 C                0   -2.72803600   -4.06208500    1.53432100
 O                0   -2.98502600   -5.44026100    1.82331400
 C                0   -1.68075700   -3.56648900    2.53433400
 C                0   -0.39461700   -4.07672500    1.89406800
 O                0   -0.89459300    0.44393900   -1.58186900
 O                0   -7.35065900   -0.45075500   -0.67084200
 O                0   -0.60753100   -0.68744100    0.73516700
 H                0   -1.67532200   -2.47250500    2.54726200
 H                0   -3.65453900   -3.47624700    1.56412600
 H                0   -2.75312000   -1.85104500    0.23061300
 H                0    0.51551000   -3.56002300    2.20455400
 H                0   -1.87152600   -3.95331900    3.53806800
 H                0   -2.15777300   -4.74439800   -0.46558400
 H                0   -3.27962800   -2.78079600   -1.17008800
 H                0   -3.68963900   -5.71962500    1.22443100
 H                0   -6.81064300   -0.67324900    0.10968400
 H                0    1.60224800   -1.66522800    2.69016300
 H                0   -6.95315600   -1.10727500   -1.28305900
 O                0    1.22832200    1.98125400   -0.94395300
 H                0    1.95903300    1.34659400   -0.81640400
 H                0    0.47869300    1.47240800   -1.35034500
 O                0    0.26275500    4.53769900    2.26278400
 H                0    0.94118300    5.21745700    2.16494600
 O                0   -1.10114300    1.87775500    1.20422300
 H                0   -1.86922200    2.10148600    0.66702100
 O                0    2.06588000    4.44730800    0.00771400
 H                0    2.27224100    4.00962900   -0.83068700
 H                0    0.50474200    3.98606600    3.08285100
 H                0   -0.95223900    0.89464400    1.09639800
 H                0    1.44504900    5.20148200   -0.24107700
 H                0   -2.40076000    0.79135400   -1.62162600
 H                0   -0.27184500   -5.15426000    2.08053900
 Mg               0    0.55989100    3.07351000    0.73498100
 C                0    5.98189600   -0.14994100   -0.12913400
 C                0    7.33804900   -0.23548700   -0.01713400
 H                0    5.35588600    0.36695200    0.58669000
 H                0    7.86105200    0.22468600    0.81140000
 N                0    5.33707800   -0.71562500   -1.17643200
 N                0    7.41131700   -1.46998600   -2.10522700
 C                0    8.01963700   -0.93724100   -1.06144500
 C                0    6.05157300   -1.36581300   -2.23636900
 N                0    9.38579200   -1.04392900   -1.02145900
 H                0    9.85412500   -0.95058300   -0.13418800
 H                0    9.78455300   -1.69630400   -1.68088500
 O                0    5.40542600   -1.79873200   -3.18337300
 H                0    0.12391100    0.45964700    4.75199500
 H                0   -2.09461800    5.79307300    1.46251900
 H                0   -7.14842500    2.46425400   -2.98106100
 H                0   -5.60719200   -4.75921600    0.72043700

