%nprocshared=8
%mem=1GB
# m062x/6-311+g(2df,2p) scrf=(iefpcm,read) geom=connectivity 

IC-185

-2 1
 C               -1    4.83232200   -2.47650600    2.86430600
 C                0    5.57911400   -2.89899300    1.59971600
 C                0    4.77395500   -3.84601400    0.69772900
 O                0    3.57917900   -4.11068200    1.08091400
 O                0    5.29922900   -4.24702000   -0.36236500
 H                0    3.88830800   -2.00099900    2.58954700
 H                0    5.80157600   -2.02640600    0.97377300
 H                0    6.54548600   -3.37139000    1.82295300
 C               -1    1.50155600   -0.37561000    4.24710400
 C                0    0.32773400   -1.30849700    3.90808400
 C                0    0.70353700   -2.43132600    2.94731300
 O                0    1.39064600   -2.06880800    1.90903800
 O                0    0.36095700   -3.60246000    3.18839700
 H                0    1.87137500    0.11917200    3.34784900
 H                0    2.33455800   -0.93007300    4.69496500
 H                0   -0.09511700   -1.76380600    4.80873000
 H                0   -0.46450100   -0.73862400    3.40834100
 C               -1    0.88170000    7.49492200    2.61222400
 C                0   -0.23101400    6.45836200    2.77123700
 C                0   -0.10117400    5.34686500    1.73539200
 O                0    0.29108400    5.57618500    0.59388900
 O                0   -0.45689200    4.17221200    2.20200000
 H                0    1.85910300    7.05278500    2.83343800
 H                0   -0.24259400    6.01603700    3.77086300
 H                0   -1.21166300    6.92881300    2.61872900
 C               -1    6.89132300   -0.08932300   -3.78166600
 C                0    5.79053700   -1.09438400   -4.10851800
 C                0    4.68335000   -1.22708200   -3.04105300
 O                0    4.87461800   -0.63395000   -1.93045800
 O                0    3.69982600   -1.93250800   -3.36443500
 H                0    7.68759700   -0.09779400   -4.53794500
 H                0    5.30195200   -0.85975500   -5.06186600
 H                0    6.21337100   -2.09992200   -4.23116700
 C               -1    6.85182400    3.32267400   -1.99252000
 C                0    6.08089700    2.38641200   -1.04371200
 C                0    4.65326600    2.78151200   -0.85689600
 C                0    3.47920100    2.09792300   -1.05102900
 N                0    4.26047700    4.03254300   -0.39408600
 C                0    2.90020200    4.05352900   -0.31931800
 N                0    2.40397500    2.89663700   -0.71241800
 H                0    6.88795600    4.35235300   -1.61321400
 H                0    6.07309200    1.35984000   -1.42281000
 H                0    6.59188800    2.35998300   -0.06988200
 H                0    4.87837800    4.78688600   -0.14151600
 H                0    3.37188000    1.08597500   -1.41150300
 H                0    2.31444800    4.89520300    0.02373300
 H                0    0.94511800    2.50491900   -0.06984100
 Mg               0    2.00264800   -3.11588600    0.13883500
 C                0   -4.44125100   -2.83871100   -0.01298500
 C                0   -2.97007700   -2.57067800   -0.34251400
 C                0   -2.52123700   -1.53415700    0.71803300
 O                0   -1.17267200   -1.50551000    0.98742400
 C                0   -3.37990400   -1.96744500    1.92160000
 O                0   -4.60372300   -2.54622900    1.37407000
 C                0   -3.80575300   -0.83437100    2.85626700
 O                0   -4.84065700   -0.04273400    2.27099700
 N                0   -5.38707800   -2.01772400   -0.82469400
 C                0   -6.41711200   -2.67535500   -1.57806200
 O                0   -6.55208000   -3.89251000   -1.50253200
 N                0   -7.22337500   -1.88249700   -2.36634100
 C                0   -7.02485200   -0.57933400   -2.42408600
 N                0   -7.83050800    0.13000200   -3.29385400
 C                0   -6.03072200    0.10826400   -1.67158400
 C                0   -5.24493900   -0.66908800   -0.87214400
 H                0   -5.86267600    1.17700900   -1.73082800
 H                0   -4.48816500   -0.22304700   -0.24138200
 H                0   -7.95972200    1.11125000   -3.09897800
 H                0   -4.76179500   -3.86237800   -0.19970200
 H                0   -8.65423300   -0.37395000   -3.59066700
 H                0   -2.81552500   -2.24017000   -1.37212900
 H                0   -2.86592300   -0.53749000    0.41855900
 H                0   -2.82244700   -2.73652900    2.47360400
 H                0   -4.14539500   -1.25084500    3.82109700
 H                0   -2.38648600   -3.48459000   -0.19232600
 H                0   -2.94580100   -0.18210500    3.02156700
 C                0   -1.25749000    1.36404600   -1.76477700
 O                0   -3.32203500    1.65929300   -0.42876900
 P                0   -0.43843500    0.86565100    0.77065200
 O                0   -1.42855700    1.09061900    1.86028400
 O                0    0.07064200    2.41009400    0.43031000
 O                0   -4.30329700    3.36262600   -2.61407000
 O                0   -0.90108100    0.42769900   -0.75561100
 C                0   -2.76129500    1.75824300   -1.72945300
 C                0   -2.95974700    3.22285300   -2.12862400
 C                0   -2.75210200    3.92889500   -0.77965900
 C                0   -3.39070400    2.94222600    0.21148300
 H                0   -1.04764200    0.87099100   -2.72049900
 H                0   -0.62622500    2.25391600   -1.70481000
 H                0   -3.34099400    1.09238200   -2.37727500
 H                0   -2.24105700    3.54948000   -2.89547900
 H                0   -1.68410600    4.04952700   -0.57747900
 H                0   -3.21169200    4.92486900   -0.75879400
 H                0   -4.44787100    3.17489000    0.39342800
 H                0   -2.85944700    2.87753600    1.16315700
 O                0    3.14636800   -1.35366500   -0.08980600
 H                0    3.79345300   -1.12122700   -0.82150800
 H                0    2.72577200   -0.53838300    0.21469900
 O                0    0.30533000   -2.39699100   -0.76015000
 H                0    0.43922300   -1.61565600   -1.31012600
 H                0   -0.59826700   -1.90240800    0.26496100
 O                0    1.00744800   -4.85876800    0.92108700
 H                0    1.86744400   -5.24688200    1.15289300
 H                0    0.67374700   -4.48548800    1.78777700
 O                0    2.87143400   -3.83793800   -1.63562700
 H                0    3.07717700   -3.11677200   -2.28361200
 H                0    3.75655900   -4.16767200   -1.34731900
 O                0    0.97393300    0.19865700    1.01863600
 H                0   -0.29079900    3.43942600    1.50501500
 H                0    1.02848600   -0.77733400    1.42464000
 H                0   -5.43608600   -0.70174300    1.88057200
 H                0   -4.52902600    4.29944000   -2.55154100
 H                0    6.48880800    0.92730300   -3.72804600
 H                0    7.33068800   -0.31577200   -2.80663900
 H                0    6.37728200    3.34919400   -2.97843700
 H                0    7.88415700    2.98122100   -2.12244300
 H                0    0.73556400    8.34608700    3.28592100
 H                0    0.90806600    7.85591800    1.58110500
 H                0    4.58602700   -3.34394900    3.48438800
 H                0    5.42770000   -1.77567400    3.46562200
 H                0    1.18486000    0.39957700    4.95464000

 1 2 1.0 6 1.0 118 1.0 119 1.0
 2 3 1.0 7 1.0 8 1.0
 3 4 2.0 5 2.0
 4 48 1.0
 5
 6
 7
 8
 9 10 1.0 14 1.0 15 1.0 120 1.0
 10 11 1.0 16 1.0 17 1.0
 11 12 1.5 13 2.0
 12
 13
 14
 15
 16
 17
 18 19 1.0 23 1.0 116 1.0 117 1.0
 19 20 1.0 24 1.0 25 1.0
 20 21 2.0 22 1.5
 21
 22
 23
 24
 25
 26 27 1.0 31 1.0 112 1.0 113 1.0
 27 28 1.0 32 1.0 33 1.0
 28 29 2.0 30 2.0
 29
 30
 31
 32
 33
 34 35 1.0 41 1.0 114 1.0 115 1.0
 35 36 1.0 42 1.0 43 1.0
 36 37 2.0 38 1.0
 37 40 1.5 45 1.0
 38 39 1.5 44 1.0
 39 40 2.0 46 1.0
 40
 41
 42
 43
 44
 45
 46
 47 80 1.0
 48 95 1.0 98 1.0 104 1.0
 49 50 1.0 54 1.0 57 1.0 68 1.0
 50 51 1.0 70 1.0 74 1.0
 51 52 1.0 53 1.0 71 1.0
 52 100 1.0
 53 54 1.0 55 1.0 72 1.0
 54
 55 56 1.0 73 1.0 75 1.0
 56 110 1.0
 57 58 1.0 64 1.5
 58 59 2.0 60 1.5
 59
 60 61 2.0
 61 62 1.5 63 1.5
 62 67 1.0 69 1.0
 63 64 2.0 65 1.0
 64 66 1.0
 65
 66
 67
 68
 69
 70
 71
 72
 73
 74
 75
 76 82 1.0 83 1.0 87 1.0 88 1.0
 77 83 1.0 86 1.0
 78 79 2.0 80 1.0 82 1.0 107 1.5
 79
 80
 81 84 1.0 111 1.0
 82
 83 84 1.0 89 1.0
 84 85 1.0 90 1.0
 85 86 1.0 91 1.0 92 1.0
 86 93 1.0 94 1.0
 87
 88
 89
 90
 91
 92
 93
 94
 95 96 1.0 97 1.0
 96
 97
 98 99 1.0
 99
 100
 101 102 1.0 103 1.0
 102
 103
 104 105 1.0 106 1.0
 105
 106
 107
 108
 109
 110
 111
 112
 113
 114
 115
 116
 117
 118
 119
 120

eps=4


