%nprocshared=4
%mem=30GB
# m062x/6-311+g(2df,2p) scrf=(iefpcm,read) integral=ultrafine

IC-185

-2 1
 C               -1   -0.96183600   -6.61463600    2.52653200
 C                0   -1.92572200   -6.68782600    1.33378600
 C                0   -2.22541400   -5.30033300    0.74931800
 O                0   -2.57487700   -4.40510700    1.57944400
 O                0   -2.09055700   -5.13634400   -0.49792600
 H                0    0.00341500   -6.19811600    2.22008500
 H                0   -1.53100500   -7.32282900    0.53505900
 H                0   -2.88060100   -7.12077200    1.66261300
 C               -1    0.37725600   -3.18551900    4.49333000
 C                0   -0.89570300   -2.68112800    5.17581500
 C                0   -1.98964300   -2.33428800    4.16217900
 O                0   -1.57937500   -1.90382000    3.03624300
 O                0   -3.19277700   -2.48148200    4.49865400
 H                0    0.76638200   -2.42753300    3.81138900
 H                0    0.16655500   -4.07752900    3.89538800
 H                0   -1.30550900   -3.41039400    5.88307000
 H                0   -0.67925600   -1.77021500    5.75181700
 C               -1    6.81542800    0.71944600    1.60908900
 C                0    5.46283300    0.01773300    1.57104900
 C                0    4.25828700    0.92969400    1.72497800
 O                0    4.32161900    2.15512300    1.66562900
 O                0    3.14648600    0.23540500    1.91284900
 H                0    6.80964300    1.57179600    0.92332200
 H                0    5.37202400   -0.50004700    0.60860000
 H                0    5.38893400   -0.77209200    2.32813300
 C               -1    8.98870200    0.27003900   -1.88115500
 C                0    8.17073800   -0.70482300   -2.73378300
 C                0    6.99405600   -1.37113900   -1.96777800
 O                0    6.05811200   -1.81740400   -2.71192100
 O                0    7.06323500   -1.43274200   -0.72388700
 H                0    9.32617000   -0.23299100   -0.97133100
 H                0    7.76053600   -0.21394000   -3.62379100
 H                0    8.81739000   -1.51377900   -3.10591200
 C               -1    3.39054100   -5.06289500   -3.79135500
 C                0    3.41422200   -3.54118300   -4.02961900
 C                0    2.82133100   -2.79209700   -2.87676000
 C                0    1.52206500   -2.58120000   -2.48448900
 N                0    3.60865700   -2.24210300   -1.88207700
 C                0    2.78596500   -1.72220800   -0.95059600
 N                0    1.50281200   -1.90524200   -1.27720600
 H                0    2.36486800   -5.41668100   -3.64385100
 H                0    4.44416100   -3.19770900   -4.17601500
 H                0    2.85670600   -3.30882400   -4.94617200
 H                0    4.66941200   -2.11013700   -2.00400700
 H                0    0.60595200   -2.87193700   -2.98110300
 H                0    3.11639900   -1.18672100   -0.07321100
 H                0    2.36738300    1.28180200   -1.60620600
 Mg               0   -2.33221400   -2.33784900    1.21787900
 C                0   -3.70796600    1.80479000   -0.81669700
 C                0   -2.51614100    2.22367600   -1.66757500
 C                0   -1.70807400    3.04399100   -0.64395800
 O                0   -0.93035300    2.24283100    0.20542000
 C                0   -2.81549200    3.67479000    0.23647400
 O                0   -4.05789000    2.97513300   -0.08419300
 C                0   -3.05258000    5.15756300    0.00477200
 O                0   -3.45983500    5.42709800   -1.33537700
 N                0   -4.89807600    1.36745800   -1.58300400
 C                0   -4.80338800    0.10286500   -2.24037300
 O                0   -3.73500700   -0.50509300   -2.18835400
 N                0   -5.91325300   -0.35577700   -2.89446300
 C                0   -7.01708100    0.36764900   -2.91721000
 N                0   -8.07912700   -0.15043000   -3.63002600
 C                0   -7.14129100    1.63801500   -2.28382400
 C                0   -6.03861300    2.08668200   -1.61033500
 H                0   -8.05581000    2.21700800   -2.31331600
 H                0   -6.01347300    3.01535900   -1.05522600
 H                0   -9.00385800    0.13528100   -3.34421100
 H                0   -3.44199200    0.98240400   -0.14662300
 H                0   -7.97862400   -1.13541400   -3.83590900
 H                0   -2.86971700    2.86820400   -2.48230000
 H                0   -1.10629700    3.81792800   -1.12288300
 H                0   -2.56329000    3.48902700    1.28509600
 H                0   -3.80581600    5.52738100    0.72206400
 H                0   -1.95508400    1.38222200   -2.06417500
 H                0   -2.10938500    5.68155100    0.18647800
 C                0    2.09703700    3.88286100   -0.43713800
 O                0    0.32028300    4.94444200    0.95902700
 P                0    0.69624700    1.67375800   -0.14286900
 O                0    0.99042700    1.46082200    1.34445400
 O                0    2.24923800    1.09963000   -0.66515500
 O                0    2.46856000    6.68953600    1.99811600
 O                0    0.99531900    3.12860900   -0.93800500
 C                0    1.62057500    5.10911300    0.39911100
 C                0    2.54995000    5.31141500    1.59847000
 C                0    1.92228700    4.35503500    2.62195600
 C                0    0.42090900    4.42553400    2.29983200
 H                0    2.67904500    4.24811000   -1.29462600
 H                0    2.75861200    3.24135100    0.15191000
 H                0    1.58039400    6.00797100   -0.22678100
 H                0    3.58830300    5.03414900    1.36893800
 H                0    2.30833000    3.34662400    2.45767200
 H                0    2.15747700    4.65153800    3.65143300
 H                0   -0.11369000    5.11978100    2.96387500
 H                0   -0.04078400    3.43562500    2.32793800
 O                0   -0.56828700   -2.88158600    0.23538300
 H                0   -0.72777500   -3.69052800   -0.27894500
 H                0    0.17763300   -2.39388800   -0.19956400
 O                0   -1.96058100   -0.35640000    0.71197500
 H                0   -1.39028700   -0.12119700   -0.05673200
 H                0   -1.56261400    0.16210900    1.42880100
 O                0   -4.27340600   -2.12560700    2.13565300
 H                0   -4.61857200   -2.99293100    1.88328200
 H                0   -3.98978400   -2.22547100    3.10212600
 O                0   -3.42120100   -2.74731700   -0.55459700
 H                0   -3.42882800   -2.09896500   -1.28251500
 H                0   -2.99224500   -3.58993600   -0.83736700
 O                0   -0.03593900    0.48242400   -1.06252600
 H                0    2.30121300    0.79441700    1.71267100
 H                0    0.60036300   -0.26341300   -1.20489600
 H                0   -4.10861600    4.73562300   -1.53185300
 H                0    2.87992200    6.74168000    2.87029200
 H                0    3.96194400   -5.31535300   -2.89254600
 H                0    3.82661000   -5.60898700   -4.63781600
 H                0    9.85976200    0.66127700   -2.42403300
 H                0    8.37349400    1.11804900   -1.56254000
 H                0    7.59414300    0.02616700    1.28580100
 H                0    7.04657400    1.10722800    2.60932100
 H                0   -1.37503500   -5.95601800    3.29419700
 H                0   -0.78389500   -7.60509900    2.96204000
 H                0    1.15286800   -3.43666200    5.22743900

 1 2 1.0 6 1.0 118 1.0 119 1.0
 2 3 1.0 7 1.0 8 1.0
 3 4 2.0 5 2.0
 4 48 1.0
 5
 6
 7
 8
 9 10 1.0 14 1.0 15 1.0 120 1.0
 10 11 1.0 16 1.0 17 1.0
 11 12 2.0 13 2.0
 12 48 1.0
 13
 14
 15
 16
 17
 18 19 1.0 23 1.0 116 1.0 117 1.0
 19 20 1.0 24 1.0 25 1.0
 20 21 2.0 22 1.5
 21
 22
 23
 24
 25
 26 27 1.0 31 1.0 114 1.0 115 1.0
 27 28 1.0 32 1.0 33 1.0
 28 29 2.0 30 2.0
 29
 30
 31
 32
 33
 34 35 1.0 41 1.0 112 1.0 113 1.0
 35 36 1.0 42 1.0 43 1.0
 36 37 2.0 38 1.0
 37 40 1.0 45 1.0
 38 39 1.5
 39 40 1.5 46 1.0
 40
 41
 42
 43
 44
 45
 46
 47 80 1.0
 48 95 1.0 98 1.0 104 1.0
 49 50 1.0 54 1.0 57 1.0 68 1.0
 50 51 1.0 70 1.0 74 1.0
 51 52 1.0 53 1.0 71 1.0
 52 78 1.0
 53 54 1.0 55 1.0 72 1.0
 54
 55 56 1.0 73 1.0 75 1.0
 56 110 1.0
 57 58 1.0 64 1.5
 58 59 2.0 60 1.5
 59
 60 61 2.0
 61 62 1.5 63 1.5
 62 67 1.0 69 1.0
 63 64 2.0 65 1.0
 64 66 1.0
 65
 66
 67
 68
 69
 70
 71
 72
 73
 74
 75
 76 82 1.0 83 1.0 87 1.0 88 1.0
 77 83 1.0 86 1.0
 78 79 2.0 80 1.0 82 1.0 107 1.0
 79
 80
 81 84 1.0 111 1.0
 82
 83 84 1.0 89 1.0
 84 85 1.0 90 1.0
 85 86 1.0 91 1.0 92 1.0
 86 93 1.0 94 1.0
 87
 88
 89
 90
 91
 92
 93
 94
 95 96 1.0 97 1.0
 96
 97
 98 99 1.0 100 1.0
 99
 100
 101 102 1.0 103 1.0
 102
 103
 104 105 1.0 106 1.0
 105
 106
 107 109 1.0
 108
 109
 110
 111
 112
 113
 114
 115
 116
 117
 118
 119
 120

eps=4











