%nprocshared=8
%mem=30GB
# freq b3lyp/6-31g(d,p) empiricaldispersion=gd3

IC-185

-3 1
 C               -1    5.86360600    1.20314100    3.21692300
 C                0    4.64414400    1.33507400    2.29472300
 C                0    3.94100300   -0.00038000    2.04056800
 N                0    2.60490400    0.06230400    1.89175900
 O                0    4.56583000   -1.07397200    1.99350900
 H                0    5.56446600    0.90818600    4.22907500
 H                0    3.92583100    2.04815600    2.71239500
 H                0    4.94757700    1.76059900    1.33027500
 H                0    2.13610500    0.93756600    1.69513000
 H                0    2.08856100   -0.79423400    1.70399300
 C               -1    4.23181700   -4.32164700    3.71109000
 C                0    4.35572300   -5.45443100    2.69632400
 C                0    3.01305600   -6.05921500    2.27119000
 O                0    1.97808500   -5.32001800    2.45656100
 O                0    3.01360700   -7.17439900    1.71026700
 H                0    3.59213600   -3.53224300    3.31353500
 H                0    4.80284800   -5.08132700    1.76435700
 H                0    5.00575600   -6.26480000    3.04820900
 C               -1    1.54996800   -1.33051100    4.84291800
 C                0    0.26115500   -1.13902400    4.03046000
 C                0    0.03760800   -2.34926800    3.12702300
 O                0    0.82090300   -2.44598400    2.11722100
 O                0   -0.85258300   -3.17313000    3.44674500
 H                0    2.40649000   -1.45392100    4.17648200
 H                0    1.47882300   -2.22424600    5.47262000
 H                0   -0.60521000   -1.02296800    4.68738900
 H                0    0.34802500   -0.24219000    3.40874300
 C               -1   -0.62810800    5.23205500    6.31638900
 C                0   -1.02537100    3.75217600    6.18001600
 C                0   -1.62989700    3.42813900    4.83073300
 C                0   -2.87447300    3.96111000    4.46280800
 C                0   -0.97164400    2.61565700    3.89983500
 C                0   -3.43635300    3.70263000    3.21844400
 C                0   -1.52218200    2.33643000    2.64972100
 C                0   -2.76489900    2.88506000    2.29402100
 O                0   -3.35655100    2.67521300    1.10181800
 H                0    0.11407000    5.50085000    5.55743600
 H                0   -0.14325100    3.12254100    6.34668200
 H                0   -1.73660800    3.50145900    6.98074600
 H                0   -3.41585200    4.58876700    5.16994300
 H                0   -0.00522900    2.18317500    4.15004000
 H                0   -4.40201600    4.10981200    2.93464600
 H                0   -0.99404800    1.70184900    1.94993100
 H                0   -2.87104000    1.98341200    0.56759400
 C               -1   -6.46235900    2.34560500    0.18760800
 C                0   -5.62223300    2.08735100   -1.06333900
 C                0   -6.41716900    2.17775500   -2.35475400
 N                0   -5.77072100    2.71331100   -3.41287200
 O                0   -7.58354200    1.75625200   -2.47466800
 H                0   -6.84083200    3.37556700    0.20476900
 H                0   -4.76818300    2.76824600   -1.10111600
 H                0   -5.20742400    1.07416000   -0.99334700
 H                0   -4.87253800    3.20842500   -3.33568500
 H                0   -6.30091100    2.77989400   -4.26902000
 C               -1    2.40879700    6.06903200    1.75914200
 C                0    2.44488900    4.54243100    1.76630100
 C                0    1.62166300    3.96332600    0.64257700
 O                0    1.38372200    4.55673000   -0.39704700
 O                0    1.20413700    2.71383600    0.89018900
 H                0    2.72093200    6.43960200    0.78115400
 H                0    3.47992500    4.21391600    1.59465800
 H                0    2.10019100    4.11973700    2.71586600
 C               -1   -1.82012200    5.87221700   -1.36984200
 C                0   -1.68442800    4.35166400   -1.43145600
 C                0   -2.35945700    3.76057900   -2.65332700
 N                0   -1.71457200    2.73993300   -3.24177100
 O                0   -3.44217100    4.21364200   -3.07733000
 H                0   -1.29680800    6.34925500   -2.20654000
 H                0   -0.63616700    4.05751100   -1.38514100
 H                0   -2.17921900    3.89882300   -0.56421800
 H                0   -0.93870100    2.27480500   -2.77421700
 H                0   -2.17350900    2.22347600   -3.97646400
 C               -1    4.85305600    7.55066300   -1.22991100
 C                0    5.58258200    6.69797300   -0.18093200
 C                0    5.50370500    5.15711100   -0.40072800
 O                0    5.55092900    4.76308200   -1.61156900
 O                0    5.44881900    4.43695100    0.62249200
 H                0    3.77315500    7.36803100   -1.19786200
 H                0    6.65219000    6.95841700   -0.18569700
 H                0    5.21485700    6.91065500    0.82788600
 C               -1    6.09904800   -3.65549200   -3.37245800
 C                0    5.46507000   -5.02789900   -3.14120000
 C                0    4.36948100   -4.94958500   -2.05758200
 O                0    4.71297800   -4.35300000   -0.99315000
 O                0    3.25751600   -5.46599400   -2.33454500
 H                0    6.92843900   -3.69026900   -4.09141200
 H                0    5.02991400   -5.43692900   -4.05890900
 H                0    6.23295700   -5.73221500   -2.79192900
 C               -1    6.93099600   -0.05731800   -2.27449900
 C                0    6.18686700    0.45246600   -1.02085300
 C                0    4.81519100    0.97899000   -1.31506400
 C                0    3.59581900    0.33412800   -1.33310300
 N                0    4.55123800    2.29224000   -1.66248000
 C                0    3.22276300    2.39801300   -1.86273200
 N                0    2.60464100    1.23229600   -1.68289400
 H                0    7.06198100    0.75050200   -3.00353800
 H                0    6.08368400   -0.36021500   -0.29296400
 H                0    6.77315800    1.24212400   -0.53477300
 H                0    5.15389000    3.16995000   -1.61502100
 H                0    3.37963000   -0.69319100   -1.06934000
 H                0    2.73188700    3.33887900   -2.06119000
 H                0    1.03353700    1.29082500   -1.50407400
 Mg               0    1.21904700   -4.15807700    0.94318100
 C                0   -4.66327400   -3.66043000    0.30181800
 C                0   -3.30520800   -3.44688700   -0.35820800
 C                0   -2.91047900   -2.02925400    0.11826500
 O                0   -1.56239600   -1.74496700    0.05672100
 C                0   -3.47772300   -2.04399700    1.55424300
 O                0   -4.57783400   -3.00256600    1.55848900
 C                0   -4.02905000   -0.70557600    2.02366700
 O                0   -5.16766100   -0.30755900    1.26493800
 N                0   -5.81687000   -3.07604100   -0.45015000
 C                0   -7.12470600   -3.31484500    0.11046000
 O                0   -7.29883800   -4.30505500    0.81251000
 N                0   -8.09602600   -2.37902800   -0.14487400
 C                0   -7.88695500   -1.43533900   -1.05178900
 N                0   -8.85202800   -0.48834900   -1.24068300
 C                0   -6.69568100   -1.36520800   -1.84429100
 C                0   -5.66877500   -2.16065400   -1.44512300
 H                0   -6.57895200   -0.62629800   -2.62392700
 H                0   -4.68915100   -2.08340100   -1.89553000
 H                0   -8.52764400    0.40777400   -1.61805800
 H                0   -4.93321800   -4.69898700    0.48823700
 H                0   -9.53864000   -0.45887900   -0.50004800
 H                0   -3.29712600   -3.58057700   -1.44371300
 H                0   -3.46818100   -1.26681000   -0.44469000
 H                0   -2.70110900   -2.40106600    2.23868900
 H                0   -4.27706500   -0.75813900    3.09618700
 H                0   -2.59592200   -4.16036100    0.07566000
 H                0   -3.26309700    0.05868900    1.88292200
 C                0    0.10156800   -1.05297600   -2.86768100
 O                0    0.06366100    0.78083800   -4.47246700
 P                0   -0.87679200    0.26180100   -0.76703100
 O                0   -2.16422200    0.88039300   -0.31480300
 O                0    0.05460700    1.53901800   -1.27449400
 O                0    0.94900800   -1.35442500   -6.44654000
 O                0   -1.03472700   -0.50295000   -2.19368200
 C                0    0.06572000   -0.64575500   -4.33480000
 C                0    1.31118300   -1.14677200   -5.07396700
 C                0    2.27356100    0.03709900   -4.90785700
 C                0    1.32548600    1.23951400   -4.97314600
 H                0    0.06513500   -2.14155600   -2.77263500
 H                0    1.03587900   -0.70104200   -2.41799400
 H                0   -0.84462000   -1.03681500   -4.80356900
 H                0    1.70093400   -2.07445500   -4.63215800
 H                0    2.76772400   -0.00725600   -3.93430600
 H                0    3.04529800    0.05413800   -5.68507000
 H                0    1.19579700    1.58870900   -6.00814900
 H                0    1.66812400    2.07291000   -4.35296400
 O                0    2.97488000   -3.07680800    0.40622800
 H                0    3.64623500   -3.60332800   -0.14406700
 H                0    3.48806000   -2.53614000    1.03670700
 O                0    0.38479200   -3.18450300   -0.70004700
 H                0    1.04841400   -2.48081000   -0.74389800
 H                0   -0.48628100   -2.71068200   -0.43598300
 O                0   -0.66069200   -4.99149300    1.57394500
 H                0   -0.21821900   -5.73107300    2.02031100
 H                0   -0.86308200   -4.34334200    2.31733500
 O                0    1.61612400   -5.79377900   -0.29384200
 H                0    2.21208500   -5.63770900   -1.08391400
 H                0    2.05322700   -6.48382700    0.24859200
 O                0    0.27100500   -0.26406500    0.24150100
 H                0    0.71362900    2.35952900    0.09741700
 H                0   -0.11296300   -1.03346900    0.73152900
 H                0   -5.75186500   -1.08038400    1.25478600
 H                0    1.75468400   -1.62781200   -6.90398400
 H                0    5.35635500   -2.94369400   -3.75252800
 H                0    6.46662700   -3.26575500   -2.42068000
 H                0    6.36497000   -0.85997900   -2.75389300
 H                0    7.92138500   -0.44798400   -2.01242800
 H                0    5.02302300    8.62467900   -1.07700800
 H                0    5.19722300    7.26862800   -2.22905500
 H                0    3.08900000    6.47292500    2.51583100
 H                0    1.40021300    6.44885300    1.95745700
 H                0   -1.49635300    5.88352400    6.16909300
 H                0   -0.20380200    5.44883000    7.30518500
 H                0   -2.87232500    6.16678200   -1.41736800
 H                0   -1.37935800    6.25045500   -0.44270600
 H                0   -7.31900100    1.66635100    0.22008100
 H                0   -5.84683900    2.16845300    1.06792000
 H                0    6.39976200    2.15542100    3.27050200
 H                0    6.53644200    0.43079300    2.83469200
 H                0    3.77479400   -4.67298700    4.64351900
 H                0    5.20881000   -3.88249800    3.94658200
 H                0    1.74189400   -0.46735400    5.49170500

 1 2 1.0 6 1.0 181 1.0 182 1.0
 2 3 1.0 7 1.0 8 1.0
 3 4 1.5 5 2.0
 4 9 1.0 10 1.0
 5
 6
 7
 8
 9
 10
 11 12 1.0 16 1.0 183 1.0 184 1.0
 12 13 1.0 17 1.0 18 1.0
 13 14 2.0 15 2.0
 14 103 1.0
 15
 16
 17
 18
 19 20 1.0 24 1.0 25 1.0 185 1.0
 20 21 1.0 26 1.0 27 1.0
 21 22 2.0 23 2.0
 22 103 1.0
 23
 24
 25
 26
 27
 28 29 1.0 37 1.0 175 1.0 176 1.0
 29 30 1.0 38 1.0 39 1.0
 30 31 1.5 32 1.5
 31 33 1.5 40 1.0
 32 34 1.5 41 1.0
 33 35 1.5 42 1.0
 34 35 1.5 43 1.0
 35 36 1.0
 36 44 1.0
 37
 38
 39
 40
 41
 42
 43
 44
 45 46 1.0 50 1.0 179 1.0 180 1.0
 46 47 1.0 51 1.0 52 1.0
 47 48 1.5 49 2.0
 48 53 1.0 54 1.0
 49
 50
 51
 52
 53
 54
 55 56 1.0 60 1.0 173 1.0 174 1.0
 56 57 1.0 61 1.0 62 1.0
 57 58 2.0 59 1.5
 58
 59 163 1.0
 60
 61
 62
 63 64 1.0 68 1.0 177 1.0 178 1.0
 64 65 1.0 69 1.0 70 1.0
 65 66 1.5 67 2.0
 66 71 1.0 72 1.0
 67
 68
 69
 70
 71
 72
 73 74 1.0 78 1.0 171 1.0 172 1.0
 74 75 1.0 79 1.0 80 1.0
 75 76 2.0 77 2.0
 76
 77
 78
 79
 80
 81 82 1.0 86 1.0 167 1.0 168 1.0
 82 83 1.0 87 1.0 88 1.0
 83 84 2.0 85 2.0
 84
 85
 86
 87
 88
 89 90 1.0 96 1.0 169 1.0 170 1.0
 90 91 1.0 97 1.0 98 1.0
 91 92 2.0 93 1.0
 92 95 1.0 100 1.0
 93 94 1.5
 94 95 1.5 101 1.0
 95
 96
 97
 98
 99
 100
 101
 102
 103 150 1.0 153 1.0 159 1.0
 104 105 1.0 109 1.0 112 1.0 123 1.0
 105 106 1.0 125 1.0 129 1.0
 106 107 1.0 108 1.0 126 1.0
 107
 108 109 1.0 110 1.0 127 1.0
 109
 110 111 1.0 128 1.0 130 1.0
 111 165 1.0
 112 113 1.0 119 1.5
 113 114 2.0 115 1.5
 114
 115 116 1.5
 116 117 1.5 118 1.5
 117 122 1.0 124 1.0
 118 119 2.0 120 1.0
 119 121 1.0
 120
 121
 122
 123
 124
 125
 126
 127
 128
 129
 130
 131 137 1.0 138 1.0 142 1.0 143 1.0
 132 138 1.0 141 1.0
 133 134 2.0 135 1.0 137 1.0 162 1.0
 134
 135
 136 139 1.0 166 1.0
 137
 138 139 1.0 144 1.0
 139 140 1.0 145 1.0
 140 141 1.0 146 1.0 147 1.0
 141 148 1.0 149 1.0
 142
 143
 144
 145
 146
 147
 148
 149
 150 151 1.0 152 1.0
 151
 152
 153 154 1.0
 154
 155
 156 157 1.0 158 1.0
 157
 158
 159 160 1.0 161 1.0
 160
 161
 162 164 1.0
 163
 164
 165
 166
 167
 168
 169
 170
 171
 172
 173
 174
 175
 176
 177
 178
 179
 180
 181
 182
 183
 184
 185










