%nprocshared=8
%mem=30GB
# opt=maxstep=10 b3lyp/6-31g(d,p) geom=connectivity empiricaldispersion=gd3

TS2-185

-1 1
 C               -1   -6.15276500    1.41281100    2.84535300
 C                0   -5.42953800    0.21603800    2.21151000
 C                0   -4.38951000    0.71274400    1.21266900
 N                0   -3.12257900    0.32769900    1.40774400
 O                0   -4.74591900    1.46150400    0.28889100
 H                0   -5.45640300    2.01645900    3.43627800
 H                0   -4.96717300   -0.41415400    2.97794200
 H                0   -6.14464900   -0.40263200    1.65602800
 H                0   -2.89354500   -0.32195700    2.14239800
 H                0   -2.34711300    0.78181300    0.90844000
 C               -1   -2.02493000    5.21308400    1.44737200
 C                0   -2.68244400    5.84914100    0.21043800
 C                0   -2.73938700    4.83367300   -0.93031200
 O                0   -1.60688100    4.37117600   -1.30997100
 O                0   -3.84671100    4.46692500   -1.38238100
 H                0   -2.58670200    4.32899700    1.76788000
 H                0   -3.69700400    6.19289000    0.43121100
 H                0   -2.08875700    6.71188600   -0.11712900
 C               -1   -1.03088700    1.91091500    3.71205600
 C                0   -0.10689400    1.26785300    2.66343100
 C                0   -0.05359400    2.11320200    1.39421500
 O                0   -0.97512800    1.94406800    0.53098700
 O                0    0.88217900    2.95518300    1.28261700
 H                0   -2.05262400    1.98854200    3.32861200
 H                0   -0.68378100    2.91875200    3.96067900
 H                0    0.90878500    1.18906400    3.06124400
 H                0   -0.44891000    0.26084400    2.40317400
 C               -1   -5.80800300   -4.68055100    3.42234200
 C                0   -4.86555100   -3.49912400    3.64088100
 C                0   -3.74633900   -3.43606300    2.61987700
 O                0   -3.67422100   -4.26279400    1.70336400
 O                0   -2.90372800   -2.45435500    2.81266400
 H                0   -6.27175400   -4.63008700    2.43340500
 H                0   -5.40324300   -2.54447900    3.59583100
 H                0   -4.40061200   -3.52680700    4.63330000
 C               -1   -7.06584700    1.17311700   -2.75884800
 C                0   -7.12168200    0.20619300   -1.57119100
 C                0   -5.97703700   -0.75608700   -1.55982300
 C                0   -4.70866700   -0.68448500   -2.07603200
 N                0   -5.99165100   -1.93535000   -0.82804200
 C                0   -4.76518700   -2.51927000   -0.91985100
 N                0   -3.97048000   -1.77731000   -1.66790200
 H                0   -7.07443300    0.63329500   -3.71096800
 H                0   -7.08177400    0.78729200   -0.64073900
 H                0   -8.07197400   -0.34672000   -1.57548900
 H                0   -6.78410000   -2.30713900   -0.32791800
 H                0   -4.25906400    0.11488400   -2.64330300
 H                0   -4.50041000   -3.44364200   -0.43142600
 H                0   -2.53239700   -4.26499400    0.50863300
 Mg               0   -0.97074100    2.38710400   -1.51850800
 C                0    5.19166400    0.43607100   -0.41681100
 C                0    3.83314100    0.22770200    0.25602500
 C                0    2.89995100    1.05573500   -0.63736000
 O                0    2.53216100    0.31949900   -1.78022400
 C                0    3.81524200    2.25718600   -0.99618500
 O                0    5.16837100    1.73066300   -0.98414800
 C                0    3.76082200    3.46837300   -0.05976200
 O                0    3.69552400    3.13921600    1.32806800
 N                0    6.34126000    0.36729300    0.51540500
 C                0    7.34720300   -0.62141000    0.33806000
 O                0    7.20672400   -1.49492700   -0.52627300
 N                0    8.45317000   -0.55292100    1.13911300
 C                0    8.54055100    0.37909300    2.07139200
 N                0    9.65989200    0.35191500    2.86616800
 C                0    7.53404200    1.36518700    2.29947400
 C                0    6.45195000    1.32443300    1.47212300
 H                0    7.61844300    2.11486600    3.07628800
 H                0    5.63145600    2.03482000    1.53043600
 H                0    9.93246700    1.20035400    3.33706500
 H                0    5.39685100   -0.30912500   -1.18370900
 H                0   10.40751900   -0.23413500    2.52324300
 H                0    3.85032600    0.65881000    1.25974500
 H                0    2.01587100    1.39156200   -0.09299600
 H                0    3.59115800    2.58157100   -2.01694400
 H                0    4.68706200    4.03590900   -0.20945800
 H                0    3.57252900   -0.82760700    0.31828400
 H                0    2.92215200    4.10637300   -0.35120100
 C                0    1.44014900   -2.68397200   -1.19823700
 O                0    2.51822900   -4.63458400   -2.10528500
 P                0   -1.05742000   -2.87246500   -0.26697600
 O                0   -1.19339600   -2.15045200    1.06215600
 O                0   -1.98608100   -4.16542900   -0.31640500
 O                0    4.82201800   -2.88740200   -0.41160300
 O                0    0.39387900   -3.44813500   -0.53132200
 C                0    2.67834300   -3.55014100   -1.18316800
 C                0    3.99267400   -2.81228200   -1.56083800
 C                0    4.52298900   -3.63965300   -2.75072500
 C                0    3.82967900   -4.98608400   -2.54054500
 H                0    1.61660400   -1.74237600   -0.67411200
 H                0    1.12674300   -2.45912000   -2.22060800
 H                0    2.81904100   -3.94065300   -0.16503800
 H                0    3.79378300   -1.77310800   -1.85334900
 H                0    4.18988300   -3.19582100   -3.69512100
 H                0    5.61529600   -3.68824700   -2.74650900
 H                0    4.35539100   -5.57323300   -1.76908700
 H                0    3.73136600   -5.59804500   -3.44254700
 O                0   -3.07361700    2.00125500   -1.82892000
 H                0   -3.42303600    2.94377700   -1.88899800
 H                0   -3.59087300    1.68144400   -1.05315700
 O                0   -0.03248300    0.69721000   -2.05768900
 H                0   -0.43614900   -0.16199400   -1.87914100
 H                0    1.54972800    0.49490800   -1.95495900
 O                0    0.83051000    3.56458100   -1.31043600
 H                0    0.29494300    4.37587100   -1.37978100
 H                0    0.92464000    3.44171700   -0.32755400
 O                0   -0.91724000    2.34384600   -3.75207900
 H                0   -0.49129300    1.48769300   -3.42850600
 H                0   -1.84212800    2.11076700   -3.91322300
 O                0   -1.39874100   -2.00506900   -1.53583200
 H                0   -2.15679400   -2.40165600    2.05656200
 H                0   -2.43052400   -1.89967900   -1.66841700
 H                0    2.75224200    2.98352700    1.53097600
 H                0    5.66564000   -2.41743300   -0.57531000
 H                0   -1.05251000    1.31735600    4.63207100
 H                0   -1.00811800    4.88553900    1.21941000
 H                0   -1.98916800    5.91767900    2.28595400
 H                0   -6.15378400    1.77553600   -2.71177500
 H                0   -7.91845800    1.85778500   -2.73859300
 H                0   -5.26425100   -5.62702500    3.47404500
 H                0   -6.59922300   -4.68945000    4.17794700
 H                0   -6.96296900    1.08379000    3.50395000
 H                0   -6.56573200    2.05097700    2.06077300

 1 2 1.0 6 1.0 121 1.0 122 1.0
 2 3 1.0 7 1.0 8 1.0
 3 4 1.5 5 2.0
 4 9 1.0 10 1.0
 5
 6
 7
 8
 9
 10
 11 12 1.0 16 1.0 115 1.0 116 1.0
 12 13 1.0 17 1.0 18 1.0
 13 14 2.0 15 2.0
 14 50 1.0
 15
 16
 17
 18
 19 20 1.0 24 1.0 25 1.0 114 1.0
 20 21 1.0 26 1.0 27 1.0
 21 22 2.0 23 2.0
 22 50 1.0
 23
 24
 25
 26
 27
 28 29 1.0 33 1.0 119 1.0 120 1.0
 29 30 1.0 34 1.0 35 1.0
 30 31 2.0 32 1.5
 31
 32
 33
 34
 35
 36 37 1.0 43 1.0 117 1.0 118 1.0
 37 38 1.0 44 1.0 45 1.0
 38 39 2.0 40 1.0
 39 42 1.5 47 1.0
 40 41 1.5 46 1.0
 41 42 2.0 48 1.0
 42
 43
 44
 45
 46
 47
 48
 49 82 1.0
 50 100 1.0
 51 52 1.0 56 1.0 59 1.0 70 1.0
 52 53 1.0 72 1.0 76 1.0
 53 54 1.0 55 1.0 73 1.0
 54 102 1.0
 55 56 1.0 57 1.0 74 1.0
 56
 57 58 1.0 75 1.0 77 1.0
 58 112 1.0
 59 60 1.0 66 1.5
 60 61 2.0 62 1.5
 61
 62 63 2.0
 63 64 1.5 65 1.5
 64 69 1.0 71 1.0
 65 66 2.0 67 1.0
 66 68 1.0
 67
 68
 69
 70
 71
 72
 73
 74
 75
 76
 77
 78 84 1.0 85 1.0 89 1.0 90 1.0
 79 85 1.0 88 1.0
 80 81 2.0 82 1.5 84 1.5 109 1.5
 81
 82
 83 86 1.0 113 1.0
 84
 85 86 1.0 91 1.0
 86 87 1.0 92 1.0
 87 88 1.0 93 1.0 94 1.0
 88 95 1.0 96 1.0
 89
 90
 91
 92
 93
 94
 95
 96
 97 98 1.0 99 1.0
 98
 99
 100 101 1.0
 101
 102
 103 104 1.0 105 1.0
 104
 105
 106 107 1.0 108 1.0
 107
 108
 109
 110
 111
 112
 113
 114
 115
 116
 117
 118
 119
 120
 121
 122

