%chk=Model3_RC_copt4.chk
%nprocshared=8
%mem=3GB
# opt b3lyp/6-31g(d,p) empiricaldispersion=gd3

Model 3 freeze opt TS1

-1 1
 C               -1    7.01038900    0.04987900    0.66071900
 C                0    7.23015800    0.00522400   -0.86327800
 C                0    6.28276200   -0.99851500   -1.52151500
 O                0    5.02472600   -0.77706100   -1.33222700
 O                0    6.74618600   -1.97723100   -2.14022400
 H                0    7.68668600    0.77299300    1.13053800
 H                0    7.04247000    0.99638000   -1.30495900
 H                0    8.25957100   -0.26995600   -1.10646900
 C               -1    3.00586300   -1.40273100    4.03908300
 C                0    2.61470300   -2.83914400    3.63624300
 C                0    3.53019500   -3.29615000    2.51614600
 O                0    4.72026100   -3.57620600    2.81295100
 O                0    3.07522200   -3.27427000    1.31176900
 H                0    2.94795500   -0.73125900    3.18162300
 H                0    4.03086500   -1.38312900    4.42191500
 H                0    2.74296900   -3.51040400    4.49222900
 H                0    1.57387500   -2.84921300    3.31468200
 C               -1   -1.93417700    5.02167800    4.21477100
 C                0   -2.67680600    4.24671600    3.12557000
 C                0   -1.88542400    4.08763300    1.81155100
 O                0   -0.65912600    4.36039200    1.84146100
 O                0   -2.54300100    3.68740100    0.79660300
 H                0   -0.97125800    4.54900000    4.42183800
 H                0   -2.92369100    3.23359300    3.47330500
 H                0   -3.63443300    4.72247000    2.88206700
 C               -1   -5.82714600    3.98873600    0.74257100
 C                0   -5.96713500    2.81091700    1.72014900
 C                0   -5.52250300    1.50814600    1.06732600
 N                0   -4.19939100    1.38986800    0.85422200
 O                0   -6.35969600    0.64860800    0.74146700
 H                0   -4.77262000    4.17032400    0.51778300
 H                0   -5.36094600    3.00462300    2.61188800
 H                0   -7.00638700    2.67267100    2.02911700
 H                0   -3.56783700    2.19774500    0.97471700
 H                0   -3.86380000    0.61655500    0.28995300
 C               -1    5.11464800    6.65817600   -1.54389500
 C                0    4.74754400    5.72391500   -0.37414400
 C                0    4.18974300    4.39627400   -0.78859900
 C                0    2.89930500    3.98654700   -0.99867400
 N                0    4.97770500    3.27232800   -1.02982600
 C                0    4.19186700    2.22710000   -1.36031800
 N                0    2.93525800    2.65378000   -1.34761300
 H                0    4.23508200    6.86570900   -2.15975400
 H                0    5.62679600    5.56269900    0.26273000
 H                0    3.99928100    6.21096000    0.25863600
 H                0    5.98035000    3.21650800   -0.92760600
 H                0    1.93956400    4.48843300   -0.91269200
 H                0    4.52548200    1.20875400   -1.55616100
 C                0   -1.07180000   -1.62547500    2.45343300
 O                0    0.02753100   -0.96574500    3.02642500
 C                0   -0.72421900   -2.48906100    1.21803400
 O                0   -1.53071900   -3.70365800    1.26848700
 C                0   -1.04702100   -1.89888300   -0.17002900
 O                0    0.02632900   -1.18398700   -0.80517500
 C                0   -1.39402200   -3.12871200   -0.99865000
 C                0   -2.15708400   -3.96071500    0.02905300
 H                0   -2.14413000   -5.03137100   -0.17723200
 H                0   -1.98142800   -2.90863600   -1.88818200
 H                0   -1.91335700   -1.23816600   -0.10944800
 H                0    0.33641200   -2.76697200    1.28031400
 H                0   -1.88254900   -0.92344900    2.19386700
 H                0   -0.47764000   -3.65134000   -1.29308700
 H                0   -1.45766300   -2.31314300    3.21447500
 P                0    0.35597300    0.39828600   -0.42565200
 C                0   -1.74115100    1.60851100   -1.46864800
 O                0   -1.11030000    1.04471200   -0.30260300
 C                0   -2.39604600    0.53788800   -2.33233600
 O                0   -3.34692700   -0.22262900   -1.56411400
 C                0   -3.17904300    1.16159400   -3.50635300
 O                0   -3.17114100    0.33479900   -4.66892900
 C                0   -4.60941200    1.17181700   -2.96749100
 C                0   -4.65435300   -0.13051400   -2.17405000
 O                0    1.12989500    0.87926000   -1.63743600
 O                0    0.05353700    4.07117600   -0.67243000
 O                0    1.01239700    0.44553500    0.93838400
 H                0   -4.75078600    2.02654600   -2.29779600
 H                0   -2.80833300    2.17015300   -3.74468000
 H                0   -2.46980300    2.31629500   -1.07375800
 H                0   -5.39250200   -0.12476400   -1.37119900
 H                0   -5.34148700    1.22071600   -3.77687600
 H                0   -1.62420100   -0.15022400   -2.70507400
 H                0   -0.99281700    2.15233800   -2.05039800
 H                0    5.87688100    6.20829500   -2.18899700
 H                0    5.50486000    7.60855700   -1.16725200
 H                0   -2.51651600    5.06942500    5.14287300
 H                0   -1.72405000    6.04442700    3.88589300
 H                0   -6.36558400    3.78183300   -0.18963200
 H                0   -6.25030100    4.90150500    1.17686100
 H                0   -2.25291700    0.10791000   -4.86585400
 H                0    5.98257500    0.32963600    0.90235000
 H                0    7.17896200   -0.93528400    1.09577700
 H                0   -0.87663100    4.16220000   -0.91934100
 H                0    0.35881000   -0.31109700    2.37741500
 H                0    2.32288600   -1.02676900    4.80524100
 H                0   -0.06589400    4.09665400    0.32357000
 O                0    2.17007600   -2.78984900   -1.12746600
 H                0    1.94122400   -3.32069300   -0.34262500
 H                0    1.45040100   -2.12109800   -1.17567700
 O                0    5.86511500   -2.85227500    0.69497600
 H                0    5.52636400   -3.26397800    1.57700200
 O                0    3.43686600   -0.52387200    0.77824500
 H                0    3.83936100    0.19510900    0.27743000
 O                0    4.72528600   -3.62771300   -1.74434300
 H                0    4.00861000   -3.62040800   -2.39294500
 H                0    6.24643100   -3.56626800    0.16900600
 H                0    2.49181700   -0.23623300    0.93902100
 H                0    5.47942600   -3.08859800   -2.12522700
 H                0    2.07988700    1.98376600   -1.48787600
 H                0   -4.81801900   -0.99994400   -2.82024200
 Mg               0    4.04495200   -2.26550100   -0.20283300
 C                0   -4.08144300   -2.77202400    1.07453300
 C                0   -5.32229400   -2.22953200    0.99142300
 H                0   -3.43375500   -2.63084900    1.92706100
 H                0   -5.71528500   -1.58081800    1.75986800
 N                0   -3.58716700   -3.54212500    0.07103600
 N                0   -5.61470100   -3.28886200   -1.17467700
 C                0   -6.05032300   -2.48562500   -0.21561600
 C                0   -4.37711300   -3.86462200   -1.07657500
 N                0   -7.26253600   -1.87553200   -0.38240500
 H                0   -7.33054700   -0.95959400    0.05405700
 H                0   -7.62088600   -1.94267200   -1.32545100
 O                0   -3.88288800   -4.60704100   -1.92427000

