%nprocshared=8
%mem=30GB
# opt=(calcfc,ts,noeigentest,maxstep=10) b3lyp/6-31g(d,p)
geom=connectivity empiricaldispersion=gd3

IC-185

-1 1
 C               -1    7.04792700    0.77840900    1.63689600
 C                0    5.90132900    1.25765800    0.73007800
 C                0    4.86138000    0.15916200    0.55833000
 N                0    3.64921200    0.36867000    1.07168800
 O                0    5.18745800   -0.90999700   -0.00522300
 H                0    6.68077800    0.56981500    2.64685400
 H                0    5.44086500    2.16975500    1.12296800
 H                0    6.29888000    1.48201900   -0.26571500
 H                0    3.29210700    1.29654300    1.30198400
 H                0    2.96499800   -0.38188600    0.98778700
 C               -1    4.81936100   -4.53997700    1.21436600
 C                0    4.59577900   -5.45863600    0.00483600
 C                0    3.47473400   -4.89624000   -0.85738300
 O                0    2.40294100   -4.59005300   -0.24600000
 O                0    3.68111500   -4.69618900   -2.09352800
 H                0    5.08225000   -3.52557100    0.89344400
 H                0    5.49775000   -5.56272500   -0.60428500
 H                0    4.29935800   -6.45862800    0.34620400
 C               -1    3.05784100   -1.83264900    3.85779400
 C                0    1.65786300   -1.36057200    3.42128300
 C                0    1.12880800   -2.16245200    2.23781800
 O                0    1.64512100   -1.88327900    1.08007100
 O                0    0.25533200   -3.03212200    2.42948600
 H                0    3.77381000   -1.72686700    3.03780900
 H                0    3.03599200   -2.88539300    4.15798900
 H                0    0.94574200   -1.46537600    4.24331200
 H                0    1.69479400   -0.30482700    3.13121600
 C               -1    4.08940200    6.06909000    2.63360700
 C                0    3.71797400    4.59153400    2.56343700
 C                0    2.84281100    4.27339300    1.35283000
 O                0    2.66189300    5.11065700    0.46741700
 O                0    2.34653700    3.06312200    1.36240300
 H                0    4.59336200    6.38114900    1.71532900
 H                0    4.61619000    3.96030900    2.50608400
 H                0    3.18318200    4.25978300    3.46011300
 C               -1    6.28450900    1.07758100   -4.03861300
 C                0    5.24235400    0.39204400   -3.13401500
 C                0    4.12571600    1.29762900   -2.72185900
 C                0    2.75857600    1.19191800   -2.80159600
 N                0    4.33625300    2.52731600   -2.11339200
 C                0    3.12229700    3.09424400   -1.85669700
 N                0    2.14597600    2.30818300   -2.26516300
 H                0    6.77659200    1.91295100   -3.52626700
 H                0    4.79704400   -0.46231000   -3.65293700
 H                0    5.72850700   -0.02594300   -2.24265300
 H                0    5.23131400    2.93131300   -1.88835400
 H                0    2.19126500    0.37042400   -3.21508000
 H                0    2.99785200    4.03254100   -1.32940100
 H                0    0.84129500    2.65246900   -0.98044700
 Mg               0    1.37965700   -2.87803000   -0.72305800
 C                0   -4.25054600   -2.25576600    0.44661800
 C                0   -3.03646000   -1.69521700   -0.30404800
 C                0   -2.51384100   -0.57702300    0.60794500
 O                0   -1.12529800   -0.36063700    0.42755700
 C                0   -2.86816100   -1.10566400    2.00518100
 O                0   -4.05717800   -1.91917000    1.82180400
 C                0   -3.22917200   -0.02793600    3.02377800
 O                0   -4.44287700    0.62837300    2.65817500
 N                0   -5.54675100   -1.72487900   -0.02770000
 C                0   -6.63918600   -2.63894000   -0.23728000
 O                0   -6.47742000   -3.83510800   -0.02989800
 N                0   -7.82907200   -2.10116600   -0.67061300
 C                0   -7.93729200   -0.80679100   -0.90084300
 N                0   -9.14464400   -0.36400700   -1.38770100
 C                0   -6.87416700    0.12652700   -0.70244500
 C                0   -5.70108300   -0.39334700   -0.25007400
 H                0   -6.95143300    1.18590700   -0.91554000
 H                0   -4.85832200    0.25522600   -0.05984000
 H                0   -9.38097700    0.60657300   -1.25213500
 H                0   -4.35582100   -3.33593400    0.35890700
 H                0   -9.90125700   -1.02766200   -1.30297700
 H                0   -3.27689300   -1.35465700   -1.31401600
 H                0   -3.03986200    0.35891400    0.43619700
 H                0   -2.04251000   -1.72998600    2.37285400
 H                0   -3.32237700   -0.48532900    4.02230100
 H                0   -2.27221300   -2.47526600   -0.36958100
 H                0   -2.43727700    0.72371900    3.03326600
 C                0   -1.92040500    2.72386700   -1.44719100
 O                0   -4.00510700    2.11601800   -0.29340900
 P                0   -0.52964300    1.33894300    0.37061100
 O                0   -1.14300600    1.91434400    1.61154900
 O                0    0.42553500    2.83591100   -0.10360100
 O                0   -5.40893200    3.79526800   -2.17353400
 O                0   -1.35113400    1.46583300   -1.07995100
 C                0   -3.44989800    2.61875800   -1.50017100
 C                0   -4.10100800    4.00094700   -1.63380000
 C                0   -4.13477200    4.48461000   -0.16405900
 C                0   -4.04275700    3.18132000    0.67223100
 H                0   -1.53914100    3.00487200   -2.43755900
 H                0   -1.61337500    3.50031500   -0.74372600
 H                0   -3.76408000    1.94305400   -2.30115700
 H                0   -3.51876100    4.67637500   -2.27928900
 H                0   -3.28888500    5.14696800    0.04309100
 H                0   -5.05282500    5.04957000    0.03033700
 H                0   -4.90602300    2.99379900    1.31226800
 H                0   -3.13616000    3.14320900    1.28347200
 O                0    3.18796900   -2.00131100   -1.49540500
 H                0    3.62719000   -2.77396900   -1.90213300
 H                0    3.86691200   -1.62117100   -0.87964200
 O                0    0.31206500   -1.31409400   -1.62234600
 H                0    0.86909100   -0.51994600   -1.64362700
 H                0   -0.41314200   -1.04087700   -0.99493800
 O                0   -0.35364600   -3.77254400    0.03188900
 H                0   -0.24167600   -4.72629200   -0.07523600
 H                0   -0.23012100   -3.57771600    1.02004200
 O                0    1.22721700   -3.81909900   -2.64469200
 H                0    1.17251700   -3.14518700   -3.33352100
 H                0    2.13496700   -4.23520100   -2.67786100
 O                0    0.95162300    0.62937400    0.30197400
 H                0    1.41958300    2.96367400    0.64748600
 H                0    0.91249800   -0.29425200    0.62634200
 H                0   -5.05482900   -0.09530900    2.45319000
 H                0   -5.87767700    4.63769400   -2.11715700
 H                0    5.81814800    1.47520300   -4.94554200
 H                0    7.06745900    0.37159800   -4.33340900
 H                0    4.74558200    6.27581700    3.48637000
 H                0    3.19202500    6.68665000    2.72941100
 H                0    7.83523500    1.53515900    1.70800500
 H                0    7.47606500   -0.14259400    1.23310500
 H                0    3.90301800   -4.47055300    1.80409100
 H                0    5.62587500   -4.91475000    1.85420800
 H                0    3.41634400   -1.24105900    4.70603200

 1 2 1.0 6 1.0 118 1.0 119 1.0
 2 3 1.0 7 1.0 8 1.0
 3 4 1.5 5 2.0
 4 9 1.0 10 1.0
 5
 6
 7
 8
 9
 10
 11 12 1.0 16 1.0 120 1.0 121 1.0
 12 13 1.0 17 1.0 18 1.0
 13 14 2.0 15 2.0
 14 50 1.0
 15
 16
 17
 18
 19 20 1.0 24 1.0 25 1.0 122 1.0
 20 21 1.0 26 1.0 27 1.0
 21 22 1.5 23 2.0
 22 50 1.0
 23
 24
 25
 26
 27
 28 29 1.0 33 1.0 116 1.0 117 1.0
 29 30 1.0 34 1.0 35 1.0
 30 31 2.0 32 1.5
 31
 32
 33
 34
 35
 36 37 1.0 43 1.0 114 1.0 115 1.0
 37 38 1.0 44 1.0 45 1.0
 38 39 2.0 40 1.0
 39 42 1.5 47 1.0
 40 41 1.5 46 1.0
 41 42 2.0 48 1.0
 42
 43
 44
 45
 46
 47
 48
 49 82 1.0
 50 100 1.0 103 1.0
 51 52 1.0 56 1.0 59 1.0 70 1.0
 52 53 1.0 72 1.0 76 1.0
 53 54 1.0 55 1.0 73 1.0
 54 80 1.0
 55 56 1.0 57 1.0 74 1.0
 56
 57 58 1.0 75 1.0 77 1.0
 58 112 1.0
 59 60 1.0 66 1.5
 60 61 2.0 62 1.5
 61
 62 63 2.0
 63 64 1.5 65 1.5
 64 69 1.0 71 1.0
 65 66 2.0 67 1.0
 66 68 1.0
 67
 68
 69
 70
 71
 72
 73
 74
 75
 76
 77
 78 84 1.0 85 1.0 89 1.0 90 1.0
 79 85 1.0 88 1.0
 80 81 2.0 84 1.0 109 1.0
 81
 82
 83 86 1.0 113 1.0
 84
 85 86 1.0 91 1.0
 86 87 1.0 92 1.0
 87 88 1.0 93 1.0 94 1.0
 88 95 1.0 96 1.0
 89
 90
 91
 92
 93
 94
 95
 96
 97 98 1.0 99 1.0
 98
 99
 100 101 1.0 102 1.0
 101
 102
 103 104 1.0 105 1.0
 104
 105
 106 107 1.0 108 1.0
 107
 108
 109 111 1.0
 110
 111
 112
 113
 114
 115
 116
 117
 118
 119
 120
 121
 122

