%chk=Model1_TS1_tsf.chk
%nprocshared=8
%mem=32GB
# opt b3lyp/6-31g(d,p) empiricaldispersion=gd3

M1 TS1 opt4

-1 1
 C               -1    4.88434200   -3.74294600    1.14403700
 C                0    4.84329700   -4.47465400   -0.20928200
 C                0    3.40901400   -4.54556900   -0.73969500
 O                0    2.81359700   -3.42302900   -0.90569700
 O                0    2.88378100   -5.67325900   -0.91745000
 H                0    5.90918700   -3.68319200    1.52772700
 H                0    5.46370000   -3.93647200   -0.93966800
 H                0    5.23696700   -5.49156500   -0.12679700
 C               -1    1.06174500   -1.35124800    4.18103300
 C                0   -0.37304600   -1.77301800    3.80416600
 C                0   -0.26393200   -2.96390600    2.85916600
 O                0    0.03563500   -4.07674500    3.36024300
 O                0   -0.36557400   -2.72909500    1.60317000
 H                0    1.62970900   -1.08470000    3.28573800
 H                0    1.57600000   -2.18048800    4.67628900
 H                0   -0.91742900   -2.07801600    4.70455800
 H                0   -0.89695900   -0.93900500    3.33260000
 C               -1    2.99675500    6.18274700    1.63741000
 C                0    2.87169600    4.92959900    0.78982700
 O                0    2.42210300    3.89504000    1.47874700
 O                0    3.13271000    4.91389200   -0.40906800
 H                0    3.52998100    6.95604200    1.08410100
 H                0    3.50689700    5.95864000    2.57795700
 C               -1    7.90627300    1.72592100   -2.47278000
 C                0    7.41655800    1.36370700   -1.05831300
 C                0    6.12486600    0.61127200   -1.04993100
 C                0    4.85637400    0.95887600   -0.66191900
 N                0    6.00034400   -0.68683900   -1.53574900
 C                0    4.69817300   -1.06383200   -1.42049800
 N                0    3.98332200   -0.08648600   -0.89495000
 H                0    7.16513800    2.34325900   -2.98851600
 H                0    8.19391100    0.78632800   -0.53790200
 H                0    7.27181900    2.27811300   -0.47429400
 H                0    6.75043800   -1.26516600   -1.88142900
 H                0    4.50048700    1.88884000   -0.24474400
 H                0    4.29838400   -2.03690300   -1.67222900
 C                0   -2.92505200    0.03285000    1.64587600
 O                0   -2.07355900    0.97319200    2.28622700
 C                0   -2.23957000   -0.51156800    0.39821500
 O                0   -2.94418400   -1.63848400   -0.20611000
 C                0   -2.10334000    0.53070300   -0.71476400
 O                0   -0.86899100    0.37426500   -1.40674400
 C                0   -3.28448500    0.22894000   -1.64791100
 C                0   -3.68973300   -1.22305400   -1.32929600
 H                0   -3.49278400   -1.90316800   -2.16146200
 H                0   -4.11839800    0.90488100   -1.44665900
 H                0   -2.18541900    1.54489800   -0.32184500
 H                0   -1.27724900   -0.90882000    0.70742800
 H                0   -3.88071800    0.52099500    1.39482000
 H                0   -2.99968300    0.34881200   -2.69180200
 H                0   -3.14180800   -0.80471600    2.32625600
 P                0    0.47049700    1.25813500   -0.73087900
 C                0   -0.16298900    3.82786500   -0.46789600
 O                0   -0.24027200    2.65332800   -1.27523000
 C                0   -1.51020000    4.54457200   -0.49411600
 O                0   -2.55663900    3.72416200    0.02038500
 C                0   -1.48209000    5.78880300    0.41113400
 O                0   -2.50216500    6.73061600    0.07687000
 C                0   -1.84855700    5.18340000    1.76767900
 C                0   -2.85909400    4.09164400    1.38190400
 O                0    1.36104800    0.39196300   -1.77917100
 O                0    2.01151800    2.20414000   -0.34388800
 O                0    0.30313200    0.89393900    0.75004000
 H                0   -0.95847200    4.75450900    2.23785600
 H                0   -0.49239500    6.27164600    0.41416300
 H                0    0.08208800    3.56600900    0.56350200
 H                0   -2.78278100    3.19576900    2.00462200
 H                0   -2.26700400    5.93956300    2.43632700
 H                0   -1.76340200    4.79609600   -1.53423200
 H                0    0.62040400    4.49499500   -0.84849400
 H                0    8.06960000    0.82820200   -3.07957300
 H                0    8.85064100    2.27870800   -2.43206100
 H                0   -2.45939200    6.88278800   -0.87601400
 H                0    4.48654300   -2.73102600    1.03803300
 H                0    4.25541900   -4.25587100    1.87458100
 H                0    2.24451000    3.11096600    0.81679100
 H                0   -1.20994800    0.99151400    1.81455500
 H                0    1.05347100   -0.48779300    4.85502500
 H                0    2.28667400    2.77033400   -1.08198700
 O                0   -0.30704800   -2.30275000   -1.25398600
 H                0   -1.19116400   -2.41905200   -0.85910200
 H                0   -0.28802100   -1.33882400   -1.47268100
 O                0    1.80512100   -4.58048000    1.58460600
 H                0    1.85692400   -5.44883600    1.16501600
 O                0    1.90890300   -1.32153800    0.80215500
 H                0    2.64060400   -0.94281200    0.27772800
 O                0    0.34520600   -4.90764900   -0.88782700
 H                0    0.09871400   -4.47623900   -1.71837900
 H                0    1.09151700   -4.60394200    2.30193600
 H                0    1.28555800   -0.56685400    0.95238000
 H                0    1.23847600   -5.32489900   -1.05934800
 H                0    2.30297800    0.37129300   -1.48782500
 H                0   -3.88497000    4.48053100    1.41169100
 Mg               0    1.05204200   -3.12427500    0.19310800
 C                0   -5.60284600   -1.71116000    0.18927700
 C                0   -6.94164600   -1.81939900    0.43301900
 H                0   -4.84181600   -1.90965100    0.93290900
 H                0   -7.31219100   -2.11705300    1.40565800
 N                0   -5.14800300   -1.35568200   -1.03186500
 N                0   -7.38469100   -1.22423000   -1.87620800
 C                0   -7.80955200   -1.54547100   -0.66844600
 C                0   -6.03910300   -1.13880200   -2.13110000
 N                0   -9.17038900   -1.65492000   -0.50021500
 H                0   -9.54193600   -1.53812700    0.42984000
 H                0   -9.71638900   -1.25532300   -1.25032300
 O                0   -5.55410000   -0.87869800   -3.22658800
 H                0    1.99263900    6.54107500    1.88983600

