%nprocshared=8
%mem=30GB
# freq b3lyp/6-31g(d,p) empiricaldispersion=gd3

SA Asp M1 IC

-1 1
 C               -1    5.76596100    4.81297100    0.33822500
 C                0    6.50812400    3.84913300   -0.61221400
 C                0    6.34779600    2.45168700   -0.02507900
 O                0    5.28898200    1.81397300   -0.35472400
 O                0    7.18186500    2.09410000    0.84225200
 H                0    5.95553000    5.85952200    0.06759200
 H                0    6.08285100    3.89078700   -1.62134800
 H                0    7.56972700    4.10579300   -0.65999600
 C               -1    2.48863700    3.27772300    4.39504400
 C                0    1.57457600    2.03814100    4.21938800
 C                0    1.75161500    1.49523300    2.80776800
 O                0    1.06686700    2.03925300    1.88679000
 O                0    2.68357300    0.65265100    2.60291500
 H                0    2.19745000    4.07243500    3.70011800
 H                0    3.53711000    3.00606600    4.22632200
 H                0    1.84991900    1.26778400    4.94430100
 H                0    0.52732800    2.31697600    4.36356200
 C               -1   -3.68206500    2.96951600    6.22833500
 C                0   -4.54220700    2.64547200    5.00067800
 C                0   -3.74154300    1.87046900    3.98469800
 C                0   -3.76864300    0.47267000    3.95197500
 C                0   -2.87489500    2.53830100    3.11090100
 C                0   -2.96283300   -0.24036100    3.06930300
 C                0   -2.07385000    1.84695800    2.20968100
 C                0   -2.12030700    0.45110200    2.19566500
 O                0   -1.35125900   -0.28143100    1.33810100
 H                0   -3.31617000    2.04888300    6.69555400
 H                0   -5.42257100    2.06784600    5.30886700
 H                0   -4.91548100    3.57607800    4.55617100
 H                0   -4.43792800   -0.06705700    4.61861000
 H                0   -2.83781000    3.62345900    3.12823800
 H                0   -3.01402900   -1.32091100    3.00570300
 H                0   -1.41138500    2.36357100    1.52648900
 H                0   -1.16053600    0.21273400    0.48663700
 C               -1   -3.87190900   -5.02612000    2.43810700
 C                0   -2.35176800   -4.97820700    2.20488900
 C                0   -1.88686200   -4.81427400    0.75877800
 N                0   -2.47793400   -3.84576300    0.03513600
 O                0   -0.96390100   -5.51903700    0.30629200
 H                0   -4.35764000   -4.09629100    2.12758800
 H                0   -1.91296300   -4.13854700    2.75881800
 H                0   -1.87275400   -5.89293200    2.56539100
 H                0   -3.17751500   -3.18669100    0.39962800
 H                0   -2.22234200   -3.71902600   -0.93642300
 C               -1   -4.98537000    4.82241900    1.66366200
 C                0   -3.89617400    4.77196900    0.58475800
 C                0   -4.00848300    3.62609700   -0.45738100
 O                0   -3.40314200    3.82392400   -1.54315900
 O                0   -4.65252400    2.58525100   -0.12140700
 H                0   -5.95113600    5.11020700    1.23253300
 H                0   -3.83638300    5.71643500    0.03258400
 H                0   -2.91258900    4.64030700    1.05610900
 C               -1   -6.84014400    0.22206900   -0.25330000
 C                0   -5.92695400   -0.09051300    0.94315400
 C                0   -4.67986300   -0.82001500    0.47835800
 N                0   -3.88441300   -0.10941500   -0.32747600
 O                0   -4.48684800   -2.01728200    0.78400400
 H                0   -6.39065200    1.00043500   -0.87122800
 H                0   -5.63295300    0.84795900    1.42264400
 H                0   -6.42436100   -0.73485800    1.67215800
 H                0   -4.01038300    0.91318100   -0.39955000
 H                0   -3.02241000   -0.51513000   -0.65860100
 C               -1    1.22673100    7.01027100   -4.82797700
 C                0    2.15259000    6.74681100   -3.62520300
 C                0    2.14835700    5.32756800   -3.13016500
 C                0    1.29434100    4.27427500   -3.31893300
 N                0    3.13592500    4.83105000   -2.27972800
 C                0    2.87944400    3.53993900   -1.97759700
 N                0    1.76531400    3.19226200   -2.60217800
 H                0    0.18503500    6.79086600   -4.57569300
 H                0    3.18238200    7.01888700   -3.89438800
 H                0    1.86968600    7.41453900   -2.79973200
 H                0    3.92095600    5.34587100   -1.90788600
 H                0    0.38221600    4.21019600   -3.88983800
 H                0    3.49257600    2.90594200   -1.34761500
 C                0    0.68226300   -2.93495400    2.03652300
 O                0   -0.41078900   -2.37685000    2.72876900
 C                0    1.23738900   -2.05160200    0.91286300
 O                0    2.52108400   -2.61965800    0.54238400
 C                0    0.46395800   -2.04609100   -0.40970600
 O                0    0.94365500   -0.92914600   -1.20503400
 C                0    0.94709800   -3.31361500   -1.10305900
 C                0    2.43193300   -3.29701600   -0.73021200
 H                0    3.01253700   -2.72198000   -1.45030700
 H                0    0.39282800   -4.17434000   -0.72337600
 H                0   -0.61573200   -1.99971600   -0.27775900
 H                0    1.40545300   -1.03833600    1.28553500
 H                0    0.43590800   -3.92574800    1.62804800
 H                0    0.79599300   -3.24225800   -2.18056300
 H                0    1.51119800   -3.07570100    2.74229100
 P                0   -0.11209800    0.06053400   -2.00020200
 C                0   -2.09069800   -0.63128400   -3.54390200
 O                0   -0.87759500   -1.05736900   -2.88390600
 C                0   -2.97029100   -1.84442800   -3.75630200
 O                0   -3.21821400   -2.48703200   -2.49758700
 C                0   -4.35036300   -1.44929700   -4.35230900
 O                0   -4.74323600   -2.32288600   -5.41912200
 C                0   -5.29728700   -1.68507700   -3.17658900
 C                0   -4.61384300   -2.82576100   -2.42996400
 O                0    0.76262700    0.91806200   -2.89765000
 O                0   -4.17039400    1.70053500   -3.04516400
 O                0   -1.02991000    0.72019800   -1.00405200
 H                0   -5.31014600   -0.79488400   -2.54700300
 H                0   -4.36414700   -0.39896400   -4.67023400
 H                0   -2.62269400    0.13027400   -2.96363500
 H                0   -4.88074900   -2.90173000   -1.37556900
 H                0   -6.30912400   -1.91257300   -3.52080800
 H                0   -2.47143500   -2.56092900   -4.42851700
 H                0   -1.82978100   -0.19350800   -4.51645500
 H                0    1.50792500    6.38758500   -5.68232100
 H                0    1.28889600    8.05963700   -5.12708800
 H                0   -4.74056400    5.54166500    2.45546800
 H                0   -5.10971600    3.83080700    2.10386100
 H                0   -4.23924300    3.53893500    6.98298700
 H                0   -2.80582500    3.55852700    5.93690500
 H                0   -4.33268200   -5.85092600    1.88301800
 H                0   -7.02729000   -0.67015200   -0.86032800
 H                0   -7.80900100    0.60020600    0.09238700
 H                0   -4.10496100   -2.20629700   -6.13459100
 H                0   -4.08161000   -5.17731300    3.50225500
 H                0    4.69272500    4.62761400    0.32679900
 H                0    6.12436900    4.66872400    1.36239100
 H                0   -3.73062500    2.48253800   -2.61124100
 H                0   -0.82207500   -1.69599500    2.15984500
 H                0    2.40647100    3.68118000    5.40880500
 H                0   -4.83165700    1.51998600   -2.36456300
 O                0    4.53177500   -0.92849300    0.73267600
 H                0    3.81922200   -1.61865700    0.74970100
 H                0    5.13308700   -1.23302300    0.03801100
 O                0    3.37206800    3.20048300    1.25680300
 H                0    3.74888200    3.49407700    2.09633600
 O                0    2.37236000    1.12067500   -0.24108100
 H                0    2.05922200    0.28881000   -0.64967900
 O                0    5.40762000    1.39957400    2.54084600
 H                0    5.47591500    0.60775500    3.08830200
 H                0    2.40554900    3.09375300    1.42198800
 H                0    1.65055900    1.39428700    0.39060700
 H                0    6.26172400    1.51257400    2.01176000
 H                0    1.30216900    2.16494300   -2.62463800
 H                0   -4.79404700   -3.78905500   -2.93140900
 Mg               0    3.99852400    1.04249700    1.01912600
 C                0    2.46697000   -5.71194100   -0.19562100
 C                0    3.16081100   -6.86453200    0.00490300
 H                0    1.39302000   -5.65960000   -0.04463900
 H                0    2.65629100   -7.76784800    0.32318600
 N                0    3.10970100   -4.57938500   -0.59848900
 N                0    5.22421800   -5.70965000   -0.54636800
 C                0    4.57348300   -6.81258200   -0.22187100
 C                0    4.54793200   -4.52899900   -0.66897400
 N                0    5.32144800   -7.94583800   -0.06568800
 H                0    4.86958200   -8.84531100   -0.09165400
 H                0    6.27637700   -7.89172300   -0.38742000
 O                0    5.09431800   -3.44301500   -0.85154200

