%nprocshared=8
%mem=30GB
# freq b3lyp/6-31g(d,p) empiricaldispersion=gd3

M1 TS1 opt4

-1 1
 C               -1    5.94467900   -3.35441000   -0.10716000
 C                0    4.66219900   -3.67218900   -0.87177900
 O                0    3.76986300   -2.74358400   -0.88135100
 O                0    4.52773600   -4.81150300   -1.35900100
 H                0    6.22741700   -2.30026800   -0.19981500
 H                0    6.76721100   -4.00270000   -0.41794300
 C               -1    0.23180900   -1.81333700    3.85317200
 C                0    1.02918100   -2.86685800    3.09575000
 O                0    1.97571600   -3.44317900    3.68750500
 O                0    0.69039300   -3.05416800    1.87703000
 H                0    0.49196700   -1.80783900    4.91325700
 H                0   -0.84075100   -1.98394600    3.72726500
 C               -1    2.12353500    6.69016300    2.00853500
 C                0    2.04235300    5.40380100    1.21995100
 O                0    1.54064700    4.41123600    1.95008400
 O                0    2.39663700    5.30100000    0.05236800
 H                0    2.50437100    7.49158000    1.37601800
 H                0    2.77987300    6.54816400    2.87236200
 C               -1    7.85474100    3.34920800   -2.09679200
 C                0    7.29687200    2.78278900   -0.77621000
 C                0    6.10567100    1.89426200   -0.95484500
 C                0    4.75900000    2.14272700   -0.87575200
 N                0    6.19425100    0.55315200   -1.31067900
 C                0    4.93734500    0.04773700   -1.42713400
 N                0    4.05152900    0.99537400   -1.17213200
 H                0    7.09043500    3.93560400   -2.61480700
 H                0    8.08861600    2.23937600   -0.24339500
 H                0    7.00248500    3.61020600   -0.12218900
 H                0    7.04363700    0.01829800   -1.41087600
 H                0    4.25540800    3.06106100   -0.60932600
 H                0    4.69222700   -0.99359800   -1.61701200
 C                0   -2.65692400   -0.68860800    1.75239800
 O                0   -1.84609000    0.39833300    2.15377400
 C                0   -2.05610300   -1.52935800    0.62292000
 O                0   -2.94694800   -2.66763700    0.38301700
 C                0   -1.90684900   -0.79007900   -0.73475200
 O                0   -0.58287700   -0.54449700   -1.13642500
 C                0   -2.62947900   -1.71983000   -1.73141100
 C                0   -3.57277500   -2.54570900   -0.86862700
 H                0   -3.76153500   -3.54650900   -1.26467000
 H                0   -3.12314100   -1.19170500   -2.54318000
 H                0   -2.40587300    0.18017900   -0.69275800
 H                0   -1.09655500   -1.93889900    0.95357800
 H                0   -3.62193100   -0.27534400    1.43129800
 H                0   -1.88344200   -2.39628500   -2.15876700
 H                0   -2.85644700   -1.35684400    2.60617000
 P                0    0.67089900    1.28197100   -0.34925000
 C                0   -1.39054600    2.81075200    0.06456800
 O                0   -0.62373700    2.06876300   -0.90362600
 C                0   -2.69606000    3.26683300   -0.57659600
 O                0   -3.41633600    2.16605100   -1.12873500
 C                0   -3.61654600    3.89640900    0.49229800
 O                0   -4.50749200    4.86792900   -0.05785200
 C                0   -4.45975300    2.69204000    0.91589000
 C                0   -4.65010700    1.97396700   -0.42071600
 O                0    1.49845700    0.76583300   -1.57296200
 O                0    1.62108000    2.61134100    0.08123800
 O                0    0.59456800    0.60204000    0.99427000
 H                0   -3.89019300    2.07038600    1.61342300
 H                0   -3.04095700    4.32450900    1.32668500
 H                0   -1.60400200    2.17726300    0.92892300
 H                0   -4.82331800    0.89967600   -0.32697800
 H                0   -5.39579000    3.00453300    1.38514100
 H                0   -2.47708100    3.97891200   -1.38679500
 H                0   -0.81768000    3.68815400    0.39562100
 H                0    8.16953800    2.54509700   -2.77041900
 H                0    8.71989700    3.99396000   -1.91032200
 H                0   -3.97819100    5.50614300   -0.55332000
 H                0    1.53382300    3.58328500    1.38468900
 H                0   -0.93352000    0.29068500    1.80985000
 H                0    1.74030000    3.27453600   -0.61861200
 O                0    0.50597200   -2.81205800   -0.98178300
 H                0   -0.21836400   -3.23148200   -0.49489500
 H                0   -0.04856100   -1.44685800   -1.11513800
 O                0    3.30472700   -4.23787200    1.62722600
 H                0    3.03986700   -5.13304800    1.37552200
 O                0    2.60472900   -1.19997100    1.06547200
 H                0    3.25100900   -0.80380600    0.46723900
 O                0    1.91779400   -5.06955200   -0.76308100
 H                0    1.33693600   -4.51734500   -1.32811600
 H                0    2.84978700   -4.04489300    2.51500000
 H                0    1.85810300   -0.56264200    1.14936300
 H                0    2.80970200   -5.06970600   -1.19836800
 H                0    2.51724800    0.86868900   -1.41260000
 H                0   -5.47827000    2.41458400   -0.99164400
 Mg               0    2.05192900   -3.08308200    0.29558600
 C                0   -5.48645100   -1.75940600    0.52253600
 C                0   -6.68863700   -1.13440100    0.69025400
 H                0   -4.90826400   -2.16508400    1.34225000
 H                0   -7.13388100   -1.02270800    1.67064400
 N                0   -4.92949900   -1.89568700   -0.70287700
 N                0   -6.83088800   -0.84644600   -1.70763700
 C                0   -7.30003300   -0.62380400   -0.49679000
 C                0   -5.70164700   -1.61295600   -1.87864600
 N                0   -8.46021000    0.11234500   -0.40087700
 H                0   -8.61592000    0.62303600    0.45511200
 H                0   -8.70654700    0.60055400   -1.25097100
 O                0   -5.31519500   -2.03516100   -2.95980500
 H                0    1.13340200    6.94964200    2.39440200
 H                0    0.45106300   -0.83323100    3.41887100
 H                0    5.71297100   -3.54231400    0.94608500

