%chk=Model1_TS1_tsf.chk
%nprocshared=8
%mem=32GB
# opt b3lyp/6-31g(d,p) empiricaldispersion=gd3

M1 TS1 opt4

-1 1
 C               -1    5.09398200   -3.71376600    0.98733800
 C                0    4.98183600   -4.53501400   -0.30932700
 C                0    3.52024300   -4.64756700   -0.74980300
 O                0    2.90637500   -3.54072200   -0.95235100
 O                0    2.99579000   -5.78668400   -0.82463000
 H                0    6.13793600   -3.62844700    1.30981300
 H                0    5.55506900   -4.04565700   -1.10951100
 H                0    5.38737600   -5.54248200   -0.18145200
 C               -1    1.43860500   -1.12931400    4.07190200
 C                0   -0.01116500   -1.58575400    3.80659800
 C                0    0.05518400   -2.84053200    2.94416300
 O                0    0.40034300   -3.91133400    3.50445200
 O                0   -0.12909900   -2.69975700    1.68341400
 H                0    1.95414500   -0.92055200    3.13107100
 H                0    1.98734300   -1.91963700    4.59306700
 H                0   -0.50047100   -1.82954800    4.75595700
 H                0   -0.57182200   -0.79216400    3.30809200
 C               -1    2.05554600    6.64682100    1.86755100
 C                0    3.34081400    6.03650600    1.28689100
 C                0    3.06153400    4.79356100    0.45353600
 O                0    2.52362800    3.81739300    1.16359000
 O                0    3.30337500    4.73334600   -0.74920100
 H                0    1.38148000    6.97073600    1.06794900
 H                0    3.86579600    6.75273300    0.64991600
 H                0    4.00910800    5.74798500    2.10699900
 C               -1    7.46135000    1.24873300   -1.68119700
 C                0    6.16917200    0.51370800   -1.55519100
 C                0    4.92314000    0.90368000   -1.13633300
 N                0    6.02258200   -0.82629900   -1.89754700
 C                0    4.72807500   -1.18450100   -1.68021900
 N                0    4.04076800   -0.15684800   -1.21823400
 H                0    8.24931100    0.80871900   -1.05685200
 H                0    7.32338100    2.28437900   -1.36226200
 H                0    6.75358100   -1.43904100   -2.22451500
 H                0    4.59102900    1.87301900   -0.79517400
 H                0    4.31533200   -2.17570900   -1.81709400
 C                0   -2.75577400    0.00433800    1.67112700
 O                0   -1.89597700    0.99699400    2.21411300
 C                0   -2.11680200   -0.60044900    0.42645500
 O                0   -2.82893600   -1.76910700   -0.08317700
 C                0   -2.04250300    0.37866700   -0.74739800
 O                0   -0.83466500    0.20286400   -1.47974400
 C                0   -3.25356800    0.00702900   -1.61545900
 C                0   -3.62813800   -1.42744200   -1.19422500
 H                0   -3.46109500   -2.15416200   -1.99279900
 H                0   -4.08824200    0.68525000   -1.42573900
 H                0   -2.12673800    1.41222900   -0.40930000
 H                0   -1.13573800   -0.96637100    0.71509800
 H                0   -3.73149900    0.45995300    1.43711800
 H                0   -3.00758000    0.06536500   -2.67441100
 H                0   -2.92432800   -0.79560300    2.40834200
 P                0    0.52213000    1.12970100   -0.90160500
 C                0   -0.14212800    3.70265600   -0.72382800
 O                0   -0.22229400    2.49373100   -1.47832200
 C                0   -1.50108100    4.39730500   -0.77576000
 O                0   -2.52473700    3.59555900   -0.19047000
 C                0   -1.49296900    5.70194000    0.03763300
 O                0   -2.54969300    6.58555400   -0.33986200
 C                0   -1.81327400    5.18405900    1.44084300
 C                0   -2.79826700    4.03860100    1.15505200
 O                0    1.37496200    0.23017900   -1.95099100
 O                0    2.06091400    2.10143600   -0.61120300
 O                0    0.41721800    0.83007000    0.60038100
 H                0   -0.90100900    4.81526200    1.91951500
 H                0   -0.52068700    6.21362600   -0.01639500
 H                0    0.11545300    3.49113500    0.31659200
 H                0   -2.67399000    3.18695200    1.83004600
 H                0   -2.23974200    5.97319100    2.06469900
 H                0   -1.77191200    4.56843500   -1.82762600
 H                0    0.63310000    4.35952500   -1.14006000
 H                0    2.28070500    7.51873200    2.48998500
 H                0    1.52709400    5.90993400    2.47773500
 H                0   -2.53334200    6.66791900   -1.30210400
 H                0    4.68755600   -2.71108000    0.83621700
 H                0    4.50727700   -4.17642500    1.78339200
 H                0    2.30886500    3.02453700    0.52109200
 H                0   -1.04906400    0.99004800    1.71240100
 H                0    1.45844200   -0.22199600    4.68534400
 H                0    2.30836200    2.64732500   -1.37369300
 O                0   -0.22568600   -2.45566400   -1.19906500
 H                0   -1.09151700   -2.55720200   -0.76190600
 H                0   -0.22852400   -1.50635100   -1.47497400
 O                0    2.05526600   -4.53645900    1.66247900
 H                0    2.08246200   -5.43169400    1.30142400
 O                0    2.08171400   -1.33523400    0.68031400
 H                0    2.77637000   -0.96738800    0.10252500
 O                0    0.45723900   -5.03163300   -0.69769000
 H                0    0.16324300   -4.65531400   -1.53953900
 H                0    1.38834200   -4.50912900    2.42406400
 H                0    1.44780900   -0.58749800    0.82548300
 H                0    1.34221600   -5.45624600   -0.89243800
 H                0    2.33254700    0.23433500   -1.71020300
 H                0   -3.83525300    4.39547400    1.19184200
 Mg               0    1.21159800   -3.17865300    0.22517500
 C                0   -5.46759000   -1.83991700    0.43450300
 C                0   -6.79326800   -1.94222400    0.74389700
 H                0   -4.67264000   -1.98897500    1.15372700
 H                0   -7.11762500   -2.18473400    1.74784200
 N                0   -5.07058300   -1.55377600   -0.82437800
 N                0   -7.34350300   -1.48533600   -1.57382400
 C                0   -7.71155600   -1.73839600   -0.33166100
 C                0   -6.01139300   -1.40671200   -1.89328000
 N                0   -9.06253400   -1.84667100   -0.09706700
 H                0   -9.39439600   -1.68009100    0.84037500
 H                0   -9.64476000   -1.49507700   -0.84394000
 O                0   -5.57747900   -1.20772700   -3.02247900
 H                0    7.82691000    1.26405300   -2.71572000

