%nprocshared=8
%mem=1GB
# m062x/6-311+g(2df,p) scrf=(iefpcm,read) geom=connectivity 

TS1-185

-2 1
 C               -1    2.12195000   -1.70898400    5.85770600
 C                0    2.88017300   -2.82109400    5.13467900
 C                0    2.26809900   -3.21829900    3.78405900
 O                0    1.30146800   -2.49875300    3.37135500
 O                0    2.76301900   -4.21172000    3.19466800
 H                0    1.08742300   -2.00540100    6.05333400
 H                0    3.91686000   -2.52153400    4.93355100
 H                0    2.94803400   -3.72979300    5.74579300
 C               -1   -0.64984900    1.37800600    5.13439200
 C                0   -0.09597100    1.16835100    3.72677400
 C                0   -0.65047500   -0.06527100    3.02492100
 O                0   -0.11282300   -0.35065100    1.88320700
 O                0   -1.56098800   -0.73766800    3.55269100
 H                0   -0.40703300    0.52468500    5.77464800
 H                0   -1.73971500    1.46372600    5.10639600
 H                0   -0.27588600    2.04258700    3.08810100
 H                0    0.99420700    1.05022700    3.73890400
 C               -1    0.36608400    6.42310700   -1.02133400
 C                0    0.34183100    5.82390500    0.39032200
 C                0    1.18459100    4.53796800    0.49956500
 O                0    2.30096500    4.54429100   -0.06484400
 O                0    0.68276200    3.57935200    1.18011500
 H                0    1.40044500    6.61218300   -1.32019300
 H                0    0.76292900    6.54393500    1.10738800
 H                0   -0.68077500    5.61299500    0.71306900
 C               -1    5.04856000   -3.96574700   -0.77589700
 C                0    4.14270700   -4.00106600   -2.02146600
 C                0    2.84612000   -3.22158100   -1.77507700
 O                0    2.90826200   -1.96484700   -1.75054900
 O                0    1.78493700   -3.89721200   -1.55583000
 H                0    5.97353400   -4.52888900   -0.94447200
 H                0    4.66371300   -3.53697200   -2.86660200
 H                0    3.89453000   -5.03387500   -2.28609000
 C               -1    5.58122200   -0.18084400   -1.27729400
 C                0    4.67752300    0.98119800   -0.85847900
 C                0    5.41935500    2.20894400   -0.42928700
 C                0    6.76231500    2.48881100   -0.27916100
 N                0    4.77551200    3.37374000   -0.07298100
 C                0    5.73537900    4.27711300    0.26220200
 N                0    6.95947400    3.78704700    0.15450200
 H                0    6.19248800   -0.52856300   -0.43577300
 H                0    3.99286200    1.22830100   -1.67794200
 H                0    4.02790200    0.65324300   -0.04054000
 H                0    3.75965700    3.57922000   -0.07140300
 H                0    7.59427300    1.82065600   -0.45994400
 H                0    5.47945000    5.28090000    0.57483600
 H                0    1.59900900    1.30579400   -0.65816500
 Mg               0    0.59931100   -2.26063000    1.47675500
 C                0   -3.57643000    0.01875700    0.98678900
 C                0   -2.71985000   -0.41108000   -0.21107400
 C                0   -2.10911800    0.88920200   -0.74728800
 O                0   -0.78322000    0.59740400   -1.22064300
 C                0   -2.08856700    1.80624200    0.49036800
 O                0   -3.14019200    1.31580400    1.36074900
 C                0   -2.34175900    3.29580600    0.28215500
 O                0   -3.71289900    3.56408100   -0.04595700
 N                0   -5.03151200    0.06402700    0.66330300
 C                0   -5.90967300   -0.90756800    1.25584700
 O                0   -5.45490500   -1.77161700    1.99014100
 N                0   -7.25335400   -0.79733700    0.95814600
 C                0   -7.67575100    0.11321600    0.10765800
 N                0   -9.02776600    0.11754700   -0.17953800
 C                0   -6.81953300    1.05370500   -0.54056300
 C                0   -5.49717900    0.98554800   -0.21258900
 H                0   -7.18390600    1.78802200   -1.24796800
 H                0   -4.77323900    1.68957700   -0.60796000
 H                0   -9.42954600    0.99677400   -0.46941400
 H                0   -3.48725600   -0.66002300    1.83306000
 H                0   -9.57926800   -0.41218300    0.48169600
 H                0   -3.29376800   -0.95464100   -0.96477600
 H                0   -2.69240700    1.33327900   -1.56034900
 H                0   -1.11934100    1.68035100    0.97232700
 H                0   -2.04896300    3.82472900    1.19678700
 H                0   -1.91507300   -1.05344200    0.14434700
 H                0   -1.72207400    3.65387000   -0.53777000
 C                0    0.48844900   -0.33749600   -4.03561900
 O                0   -0.09460400   -2.22300100   -5.39894900
 P                0    0.05300400    1.61043000   -2.21134000
 O                0   -0.51064100    2.98154400   -2.24779000
 O                0    1.50821300    1.30852100   -1.73188700
 O                0   -2.84518400   -1.83835000   -3.74828100
 O                0   -0.05876600    0.94586900   -3.67753200
 C                0   -0.65899600   -1.21328300   -4.54093200
 C                0   -1.44504700   -1.94404700   -3.43581300
 C                0   -0.93616500   -3.38690200   -3.55900600
 C                0   -0.66988700   -3.48429500   -5.05806400
 H                0    1.04087200   -0.79839100   -3.20918700
 H                0    1.19491400   -0.17622500   -4.85532200
 H                0   -1.35351400   -0.57932200   -5.10820400
 H                0   -1.24938300   -1.52168900   -2.45067000
 H                0   -0.00460100   -3.51735600   -3.00248000
 H                0   -1.66475800   -4.11312200   -3.18446500
 H                0   -1.60865000   -3.64498900   -5.61445600
 H                0    0.04464100   -4.26640500   -5.33525200
 O                0    2.45121800   -1.37432400    0.85305700
 H                0    2.62984200   -1.47630000   -0.11447100
 H                0    2.48386700   -0.41575900    1.02320900
 O                0    0.06811700   -2.12839200   -0.55017800
 H                0    0.68749200   -2.74004600   -1.04848900
 H                0    0.22052200   -1.22680100   -0.87252400
 O                0   -1.34589900   -2.89698000    2.07097300
 H                0   -1.22804200   -3.68373700    2.61739100
 H                0   -1.58811800   -2.14820000    2.69561300
 O                0    1.17595500   -4.23693400    1.10994100
 H                0    1.54474400   -4.36718600    0.21408000
 H                0    1.88766000   -4.36427100    1.80884500
 O                0    1.66206400    1.30958000    0.73734400
 H                0    1.39713400    2.28984300    0.98160300
 H                0    0.93373400    0.75593200    1.12178800
 H                0   -4.20814300    3.22478500    0.71357200
 H                0   -3.31559300   -2.29338400   -3.03710900
 H                0    2.59977200   -1.45373100    6.81184100
 H                0    2.07770000   -0.81116900    5.23652600
 H                0   -0.20273800    7.36003700   -1.07266900
 H                0   -0.05798600    5.71182500   -1.73760800
 H                0    5.30995300   -2.93718000   -0.52008300
 H                0    4.53647800   -4.40013200    0.08982500
 H                0    6.26726100    0.12515300   -2.07702800
 H                0    4.96202300   -1.00349000   -1.63630700
 H                0   -0.23492700    2.28560300    5.58680700

 1 2 1.0 6 1.0 112 1.0 113 1.0
 2 3 1.0 7 1.0 8 1.0
 3 4 2.0 5 2.0
 4 48 1.0
 5
 6
 7
 8
 9 10 1.0 14 1.0 15 1.0 120 1.0
 10 11 1.0 16 1.0 17 1.0
 11 12 1.5 13 2.0
 12 48 1.0
 13
 14
 15
 16
 17
 18 19 1.0 23 1.0 114 1.0 115 1.0
 19 20 1.0 24 1.0 25 1.0
 20 21 2.0 22 2.0
 21
 22
 23
 24
 25
 26 27 1.0 31 1.0 116 1.0 117 1.0
 27 28 1.0 32 1.0 33 1.0
 28 29 2.0 30 2.0
 29
 30
 31
 32
 33
 34 35 1.0 41 1.0 118 1.0 119 1.0
 35 36 1.0 42 1.0 43 1.0
 36 37 2.0 38 1.5
 37 40 1.0 45 1.0
 38 39 1.5 44 1.0
 39 40 2.0 46 1.0
 40
 41
 42
 43
 44
 45
 46
 47
 48 98 1.0 101 1.0 104 1.0
 49 50 1.0 54 1.0 57 1.0 68 1.0
 50 51 1.0 70 1.0 74 1.0
 51 52 1.0 53 1.0 71 1.0
 52 78 1.0
 53 54 1.0 55 1.0 72 1.0
 54
 55 56 1.0 73 1.0 75 1.0
 56 110 1.0
 57 58 1.0 64 1.5
 58 59 2.0 60 1.5
 59
 60 61 2.0
 61 62 1.0 63 1.5
 62 67 1.0 69 1.0
 63 64 2.0 65 1.0
 64 66 1.0
 65
 66
 67
 68
 69
 70
 71
 72
 73
 74
 75
 76 82 1.0 83 1.0 87 1.0 88 1.0
 77 83 1.0 86 1.0
 78 79 2.0 80 1.5 82 1.0
 79
 80
 81 84 1.0 111 1.0
 82
 83 84 1.0 89 1.0
 84 85 1.0 90 1.0
 85 86 1.0 91 1.0 92 1.0
 86 93 1.0 94 1.0
 87
 88
 89
 90
 91
 92
 93
 94
 95 96 1.0 97 1.0
 96
 97
 98 99 1.0 100 1.0
 99
 100
 101 102 1.0 103 1.0
 102
 103
 104 105 1.0 106 1.0
 105
 106
 107 109 1.0
 108
 109
 110
 111
 112
 113
 114
 115
 116
 117
 118
 119
 120

eps=4


