%nprocshared=8
%mem=1GB
# m062x/6-311+g(2df,2p) scrf=(iefpcm,read) geom=connectivity 

TS1-185

-2 1
 C               -1    4.76986800   -4.68033100    2.13332600
 C                0    5.30191700   -4.86656300    0.71211500
 C                0    4.32582500   -4.38316700   -0.37225100
 O                0    3.13257000   -4.14983300    0.02236400
 O                0    4.75643100   -4.26457600   -1.54103100
 H                0    3.83568400   -5.23065900    2.26938800
 H                0    6.24499600   -4.32944300    0.56043400
 H                0    5.52355200   -5.92407600    0.51071200
 C               -1    1.78845400   -3.11180700    4.66050700
 C                0    1.74714200   -1.98994000    3.61691400
 C                0    1.12473800   -2.43205700    2.28923300
 O                0    1.55783000   -1.84832200    1.23789700
 O                0    0.23212100   -3.31540200    2.30246300
 H                0    2.43249900   -3.92960200    4.31952000
 H                0    0.78624100   -3.52192000    4.80831700
 H                0    1.17031100   -1.12828900    3.98020600
 H                0    2.74880900   -1.60480900    3.40319200
 C               -1    0.59910900    4.80789700    5.15218200
 C                0    0.36138200    3.35876900    4.72427500
 C                0    1.23190800    2.91442900    3.54748900
 O                0    2.01275000    3.69001100    3.00355600
 O                0    1.03874500    1.66017300    3.21148700
 H                0    1.63493700    4.95622600    5.47301600
 H                0    0.52171700    2.65673200    5.55290000
 H                0   -0.67887600    3.21780800    4.41114600
 C               -1    5.53717000   -0.09826600   -3.87331100
 C                0    4.21302000    0.56453200   -4.28945600
 C                0    3.12836200    0.25953500   -3.25281100
 O                0    3.26060800    0.82663200   -2.12524300
 O                0    2.22978100   -0.57507800   -3.56044400
 H                0    6.34063600    0.12953300   -4.58381500
 H                0    4.34176300    1.65170500   -4.33947900
 H                0    3.88848300    0.20287000   -5.27005500
 C               -1    5.72950100    2.63116100   -1.15779700
 C                0    4.62922600    2.86139800   -0.11601700
 C                0    3.66542100    3.92875100   -0.53392500
 C                0    3.66469400    4.83857600   -1.57103000
 N                0    2.47929200    4.15396500    0.12518500
 C                0    1.82660500    5.15026600   -0.52867400
 N                0    2.51392500    5.60422800   -1.56407700
 H                0    6.32784500    3.53730000   -1.31453000
 H                0    4.06938100    1.93273400    0.03628800
 H                0    5.07518100    3.11623400    0.85753000
 H                0    2.14227300    3.67681700    0.96071900
 H                0    4.42415400    4.96743800   -2.33136200
 H                0    0.84347000    5.47172400   -0.21674700
 H                0    1.71657900    1.52423600   -1.33047800
 Mg               0    1.89076000   -2.65766400   -0.66920000
 C                0   -3.31142000   -1.84550500    1.43963600
 C                0   -2.20310400   -1.54577300    0.43262400
 C                0   -1.85013300   -0.10327600    0.79413600
 O                0   -0.56201300    0.23099000    0.32090400
 C                0   -1.91568800   -0.16414300    2.32479100
 O                0   -3.03715400   -1.05721200    2.59060100
 C                0   -2.14653700    1.15006800    3.07543600
 O                0   -3.52865100    1.52864300    3.08914600
 N                0   -4.65446200   -1.48720900    0.87452500
 C                0   -5.30675800   -2.48850900    0.08593100
 O                0   -4.81338200   -3.60912200    0.01534400
 N                0   -6.47191200   -2.13442900   -0.55504300
 C                0   -6.88557000   -0.88490400   -0.51994500
 N                0   -7.98332100   -0.57480500   -1.30177800
 C                0   -6.24964900    0.14069700    0.23430700
 C                0   -5.11768400   -0.21826100    0.90902400
 H                0   -6.60166500    1.16453200    0.24539500
 H                0   -4.55083800    0.49483700    1.49624100
 H                0   -8.54058000    0.21815700   -1.02148900
 H                0   -3.38239900   -2.89703000    1.71193300
 H                0   -8.50132800   -1.38449200   -1.61351400
 H                0   -2.52242600   -1.68105500   -0.59837500
 H                0   -2.58106800    0.61264200    0.41276200
 H                0   -0.98839300   -0.62725900    2.68003300
 H                0   -1.77168200    1.05223000    4.10389000
 H                0   -1.33786500   -2.17899300    0.64302800
 H                0   -1.58274500    1.94522900    2.58130400
 C                0   -1.83177900    1.35725300   -2.09443700
 O                0   -3.87979200    2.40950400   -2.93241900
 P                0   -0.08547500    1.82611600   -0.05956900
 O                0   -0.22719000    2.95446800    0.91842900
 O                0    0.77225500    1.77451800   -1.42598600
 O                0   -4.12424600   -0.98477700   -2.15095300
 O                0   -1.52317100    2.11959300   -0.94559300
 C                0   -3.34056000    1.26572700   -2.26083000
 C                0   -3.82963300    0.05102100   -3.08149300
 C                0   -5.07015400    0.59309300   -3.83853000
 C                0   -5.19710700    2.03141100   -3.29796100
 H                0   -1.44443500    0.33236900   -2.01936700
 H                0   -1.39287000    1.80137900   -2.99847800
 H                0   -3.80521500    1.17573000   -1.26728900
 H                0   -3.05107900   -0.27650600   -3.78433700
 H                0   -4.89532300    0.60068300   -4.91937000
 H                0   -5.95120200   -0.01867700   -3.62341200
 H                0   -5.86621700    2.04396800   -2.41954800
 H                0   -5.57265100    2.75474700   -4.02935200
 O                0    3.45348500   -1.20198700   -0.46904400
 H                0    3.34930800   -0.38117800   -1.02541800
 H                0    3.25789600   -0.93138500    0.44047000
 O                0    0.57490000   -1.38045500   -1.61025400
 H                0    1.05931800   -0.88716000   -2.32590300
 H                0    0.17679700   -0.73736200   -0.99288600
 O                0    0.42323500   -4.16912000   -0.20890100
 H                0    1.09335700   -4.86070200   -0.09335400
 H                0    0.18902700   -3.91083400    0.72988900
 O                0    2.54366400   -3.18402300   -2.59349400
 H                0    2.61642100   -2.37094100   -3.13154800
 H                0    3.45094100   -3.54763400   -2.39594100
 O                0    1.54923300    1.18315600    0.84369200
 H                0    1.34738200    1.48841900    2.17207300
 H                0    1.49087500    0.21230100    0.88073400
 H                0   -3.98675600    0.74814300    3.43406300
 H                0   -4.26286800   -1.81950800   -2.61463300
 H                0    5.49511800   -5.02106400    2.88331900
 H                0    4.54287100   -3.62709600    2.32174000
 H                0   -0.06763200    5.09221600    5.97480800
 H                0    0.42742800    5.48041000    4.30800000
 H                0    5.83845900    0.24879700   -2.88265700
 H                0    5.42607400   -1.18721700   -3.82273700
 H                0    5.26936200    2.34175600   -2.10332800
 H                0    6.40419100    1.82748900   -0.84295600
 H                0    2.17367500   -2.74927800    5.62064700

 1 2 1.0 6 1.0 112 1.0 113 1.0
 2 3 1.0 7 1.0 8 1.0
 3 4 2.0 5 2.0
 4 48 1.0
 5
 6
 7
 8
 9 10 1.0 14 1.0 15 1.0 120 1.0
 10 11 1.0 16 1.0 17 1.0
 11 12 2.0 13 2.0
 12 48 1.0
 13
 14
 15
 16
 17
 18 19 1.0 23 1.0 114 1.0 115 1.0
 19 20 1.0 24 1.0 25 1.0
 20 21 2.0 22 1.5
 21
 22
 23
 24
 25
 26 27 1.0 31 1.0 116 1.0 117 1.0
 27 28 1.0 32 1.0 33 1.0
 28 29 2.0 30 2.0
 29
 30
 31
 32
 33
 34 35 1.0 41 1.0 118 1.0 119 1.0
 35 36 1.0 42 1.0 43 1.0
 36 37 2.0 38 1.5
 37 40 1.0 45 1.0
 38 39 1.5 44 1.0
 39 40 1.5 46 1.0
 40
 41
 42
 43
 44
 45
 46
 47 80 1.0
 48 98 1.0 104 1.0
 49 50 1.0 54 1.0 57 1.0 68 1.0
 50 51 1.0 70 1.0 74 1.0
 51 52 1.0 53 1.0 71 1.0
 52 78 1.0
 53 54 1.0 55 1.0 72 1.0
 54
 55 56 1.0 73 1.0 75 1.0
 56 110 1.0
 57 58 1.0 64 1.5
 58 59 2.0 60 1.5
 59
 60 61 2.0
 61 62 1.0 63 1.5
 62 67 1.0 69 1.0
 63 64 2.0 65 1.0
 64 66 1.0
 65
 66
 67
 68
 69
 70
 71
 72
 73
 74
 75
 76 82 1.0 83 1.0 87 1.0 88 1.0
 77 83 1.0 86 1.0
 78 79 2.0 80 1.0 82 1.0
 79
 80
 81 84 1.0 111 1.0
 82
 83 84 1.0 89 1.0
 84 85 1.0 90 1.0
 85 86 1.0 91 1.0 92 1.0
 86 93 1.0 94 1.0
 87
 88
 89
 90
 91
 92
 93
 94
 95 96 1.0 97 1.0
 96
 97
 98 99 1.0 100 1.0
 99
 100
 101 102 1.0 103 1.0
 102
 103
 104 105 1.0 106 1.0
 105
 106
 107 109 1.0
 108
 109
 110
 111
 112
 113
 114
 115
 116
 117
 118
 119
 120

eps=4


