%chk=Model4_TS1_tsopt3.chk
%nprocshared=8
%mem=32GB
# opt=(calcfc,ts,noeigen) b3lyp/6-31g(d,p) empiricaldispersion=gd3

Model 4 mg conf 2 TS

-1 1
 C               -1   -4.67643200   -4.74660200   -1.43211600
 C                0   -5.09876000   -3.76644600   -2.54245400
 C                0   -4.94976600   -2.31085700   -2.07954700
 O                0   -3.77983200   -1.98132100   -1.66232900
 O                0   -5.95427400   -1.56558800   -2.07461200
 H                0   -4.78703900   -5.78656200   -1.76045100
 H                0   -4.46921300   -3.91636400   -3.43242500
 H                0   -6.13618200   -3.93091500   -2.84651000
 C               -1   -2.35475800   -3.83912700    3.39992700
 C                0   -3.16842300   -2.79147000    4.17905300
 C                0   -4.00397700   -1.98120300    3.18918800
 O                0   -3.35299800   -1.27539800    2.34074700
 O                0   -5.24917700   -2.13990600    3.20712800
 H                0   -3.02085800   -4.48408300    2.81734300
 H                0   -1.77323900   -4.47106700    4.08089600
 H                0   -3.84314100   -3.27057400    4.89386100
 H                0   -2.49256700   -2.13322400    4.73466200
 C               -1    3.32834200   -3.26449700    6.38382600
 C                0    2.84076500   -1.80586600    6.35100800
 C                0    2.09879600   -1.46888500    5.07576200
 C                0    0.70172300   -1.36655100    5.04156600
 C                0    2.79908900   -1.28311200    3.87554400
 C                0    0.02100500   -1.08819300    3.85715100
 C                0    2.13877500   -1.01571300    2.67931400
 C                0    0.74243700   -0.92176300    2.67545500
 O                0    0.04674800   -0.67755400    1.52355600
 H                0    2.48259300   -3.95587700    6.30746500
 H                0    2.19263800   -1.61939100    7.21605500
 H                0    3.70535700   -1.13816200    6.46290000
 H                0    0.13307200   -1.50107300    5.95942000
 H                0    3.88560000   -1.34546500    3.87115500
 H                0   -1.05786600   -0.99327800    3.81183600
 H                0    2.69103400   -0.86788100    1.76125100
 H                0    0.67725000   -0.36584600    0.79721400
 C               -1    5.60403100   -3.83440200    1.86022200
 C                0    4.23163200   -3.84780500    1.17873800
 C                0    3.95939900   -2.66214800    0.24880400
 O                0    2.97070100   -2.86450500   -0.56611400
 O                0    4.62443500   -1.61967200    0.34607500
 H                0    6.41231300   -3.87787800    1.12317700
 H                0    4.07117600   -4.77053300    0.61114600
 H                0    3.43402000   -3.81382300    1.93296900
 C               -1    7.00599000    1.26836700    1.33839400
 C                0    5.79230400    0.91993400    2.21517600
 C                0    4.56807400    1.67093500    1.71892000
 N                0    4.00107900    1.17005000    0.60610300
 O                0    4.19145300    2.71972200    2.27362700
 H                0    6.84259400    0.93328000    0.31020900
 H                0    5.60586900   -0.15801200    2.16740000
 H                0    5.96214800    1.21647500    3.25306900
 H                0    4.18253600    0.20118400    0.33409500
 H                0    3.10769200    1.54424500    0.30688300
 C               -1    0.90330400   -5.13630500   -5.99651400
 C                0    0.83520900   -5.74111600   -4.58202700
 C                0    0.15918500   -4.83271200   -3.60797800
 C                0    0.59612700   -4.16653600   -2.49070000
 N                0   -1.15751500   -4.41685600   -3.77688400
 C                0   -1.46143600   -3.53420800   -2.79291200
 N                0   -0.41896300   -3.36525700   -1.99565500
 H                0    1.44138700   -4.18388300   -5.98266200
 H                0    1.84569400   -5.94240800   -4.21277100
 H                0    0.32153600   -6.71208000   -4.62269500
 H                0   -1.78805700   -4.71842800   -4.50361700
 H                0    1.56329700   -4.19402400   -2.00729400
 H                0   -2.41075400   -3.02092900   -2.65852600
 C                0    1.09160200    4.04030800    1.01959600
 O                0    2.41507100    3.80929800    0.59511000
 C                0    0.14401900    2.93760500    0.53721800
 O                0   -1.18763800    3.25813600    1.01190400
 C                0    0.04739400    2.84155900   -1.00183500
 O                0   -0.29764500    1.52017500   -1.43912500
 C                0   -1.17773800    3.71114700   -1.29048200
 C                0   -2.07133000    3.36497100   -0.09615200
 H                0   -2.60799100    2.43333100   -0.24999000
 H                0   -0.91344900    4.77449700   -1.26363900
 H                0    0.96181600    3.18119200   -1.49412400
 H                0    0.44673200    1.97872600    0.95869800
 H                0    0.74587600    5.00217500    0.60776800
 H                0   -1.63712200    3.47392300   -2.25048000
 H                0    1.00781600    4.11083700    2.11303900
 P                0    0.87578700    0.32840300   -1.65358600
 C                0    3.04423700    1.14816100   -2.94904200
 O                0    1.61394100    1.12614800   -2.86220600
 C                0    3.47763500    2.50669100   -3.48756100
 O                0    2.94327700    3.56286700   -2.69286000
 C                0    5.01535900    2.64584200   -3.43233500
 O                0    5.52512400    3.48839700   -4.46903700
 C                0    5.21318800    3.37921500   -2.10528300
 C                0    4.00840900    4.31932700   -2.09041600
 O                0   -0.31607200   -0.65677300   -2.07925200
 O                0    2.11774100   -1.24246600   -2.13395400
 O                0    1.55559200    0.28385100   -0.29465300
 H                0    5.15102600    2.67160700   -1.27283900
 H                0    5.51350300    1.66444700   -3.45244700
 H                0    3.48682700    0.97103300   -1.96720200
 H                0    3.68032900    4.59828500   -1.08834000
 H                0    6.17665600    3.89389300   -2.07352400
 H                0    3.10946800    2.62010900   -4.51985200
 H                0    3.38558400    0.35015600   -3.61662900
 H                0    1.41411200   -5.81226600   -6.69001000
 H                0   -0.09755800   -4.94384100   -6.39807600
 H                0    5.70935900   -4.68614700    2.54013400
 H                0    5.73574800   -2.91199500    2.43223600
 H                0    3.87254200   -3.48660100    7.30933600
 H                0    3.99527900   -3.46768900    5.53911100
 H                0    7.17764000    2.34987000    1.32433300
 H                0    7.91326900    0.78299400    1.71311000
 H                0    5.19487500    3.14847200   -5.31068500
 H                0   -3.63541200   -4.57424500   -1.14786500
 H                0   -5.27971000   -4.58498600   -0.53631300
 H                0    2.61163800   -1.99970700   -1.27694000
 H                0    2.98405000    3.48619700    1.33784200
 H                0   -1.67209800   -3.35900000    2.70119500
 H                0    1.87436600   -1.72652600   -2.93376100
 O                0   -2.22827500    0.31010300    0.24567900
 H                0   -1.59431100    0.23277800    0.98151800
 H                0   -1.68394200    0.51658800   -0.53851600
 O                0   -5.39829400   -2.42070400    0.67848500
 H                0   -6.11503900   -2.00835400    0.17731300
 O                0   -1.85447900   -2.51923100    0.39876700
 H                0   -1.35388000   -2.82117600   -0.38232600
 O                0   -5.04956000    0.22469300   -0.24585100
 H                0   -4.83048100    1.15897000   -0.40983600
 H                0   -5.55713700   -2.24817000    1.66030200
 H                0   -1.20941000   -2.01797500    0.93256100
 H                0   -5.45005100   -0.15133100   -1.06706500
 H                0   -0.11936700   -1.61518600   -1.94233200
 H                0    4.21044800    5.21631600   -2.69375700
 Mg               0   -3.61858000   -1.26216600    0.29242500
 C                0   -2.77407400    5.49917400    0.87964300
 C                0   -3.71072500    6.44570300    1.16557200
 H                0   -1.73578800    5.57322400    1.18110900
 H                0   -3.45780000    7.34119900    1.71907600
 N                0   -3.10180600    4.36619400    0.21534300
 N                0   -5.38530600    5.05733100    0.09019300
 C                0   -5.04431800    6.15967400    0.73257300
 C                0   -4.44827700    4.10269600   -0.19294200
 N                0   -6.05103500    7.04227100    1.01720800
 H                0   -5.82318100    7.99956100    1.23097400
 H                0   -6.92953400    6.86535700    0.55287100
 O                0   -4.70105300    3.06036600   -0.79553500

