%nprocshared=8
%mem=1GB
# opt=maxstep=10 b3lyp/6-31g(d,p) geom=connectivity empiricaldispersion=gd3

IC-185

-1 1
 C               -1    7.09910600   -0.71828300   -1.54651400
 C                0    5.92011200   -1.21294200   -0.69171800
 C                0    4.87838500   -0.11474500   -0.52377500
 N                0    3.66836300   -0.32054000   -1.04434900
 O                0    5.19968200    0.94925400    0.05049400
 H                0    6.76966700   -0.48666300   -2.56444400
 H                0    5.47012600   -2.11410600   -1.12086300
 H                0    6.28265900   -1.46451100    0.31089200
 H                0    3.32095400   -1.24159700   -1.30083800
 H                0    2.97798200    0.42768800   -0.96731700
 C               -1    4.80818600    4.57577200   -1.15289500
 C                0    4.56260000    5.47329400    0.06812600
 C                0    3.43066000    4.89312200    0.90453500
 O                0    2.37485100    4.58010300    0.27019600
 O                0    3.61479800    4.68686700    2.14339400
 H                0    5.06945100    3.55722800   -0.84409500
 H                0    5.45472300    5.57089600    0.69267600
 H                0    4.26783600    6.47802600   -0.26076300
 C               -1    3.13529200    1.86299800   -3.84781100
 C                0    1.73577400    1.36984600   -3.43442000
 C                0    1.17600000    2.16240100   -2.25819000
 O                0    1.67207600    1.88304300   -1.09218200
 O                0    0.29880300    3.02454500   -2.46523000
 H                0    3.83946300    1.76856900   -3.01619300
 H                0    3.10220100    2.91539900   -4.14809400
 H                0    1.03553200    1.46596100   -4.26762500
 H                0    1.78287200    0.31432600   -3.14524100
 C               -1    4.21753100   -6.03353500   -2.63382100
 C                0    3.78963300   -4.57084800   -2.58543200
 C                0    2.86402500   -4.28486200   -1.40982300
 O                0    2.65698600   -5.11739400   -0.53356100
 O                0    2.34654500   -3.07301900   -1.44354500
 H                0    4.70879300   -6.32169600   -1.70089800
 H                0    4.65935500   -3.90438900   -2.50071200
 H                0    3.27283000   -4.26345500   -3.50113900
 C               -1    6.20811500   -1.05051200    4.10852600
 C                0    5.18815500   -0.38149800    3.16714200
 C                0    4.09160700   -1.29953000    2.72937200
 C                0    2.72179600   -1.20953000    2.78111500
 N                0    4.32873900   -2.52590200    2.12395800
 C                0    3.12526100   -3.10563200    1.84278600
 N                0    2.13262000   -2.33141000    2.23156500
 H                0    6.72231300   -1.88602000    3.61847400
 H                0    4.71960100    0.47336200    3.66399600
 H                0    5.69764800    0.03397700    2.28787000
 H                0    5.23330600   -2.92263200    1.92548900
 H                0    2.13668400   -0.39491100    3.18297300
 H                0    3.02140400   -4.04844400    1.32136900
 H                0    0.81118500   -2.68456500    0.93621400
 Mg               0    1.35088500    2.85509700    0.71188200
 C                0   -4.23478100    2.24907600   -0.46783100
 C                0   -3.02238400    1.68275400    0.28047000
 C                0   -2.50603000    0.55945600   -0.63046800
 O                0   -1.11953800    0.33675900   -0.45774800
 C                0   -2.86652600    1.08434300   -2.02799600
 O                0   -4.04680100    1.91085800   -1.84303500
 C                0   -3.24389500    0.00390400   -3.03774600
 O                0   -4.46143200   -0.63913200   -2.66030300
 N                0   -5.53349000    1.72561900    0.01001500
 C                0   -6.62573500    2.64283900    0.20385300
 O                0   -6.46259200    3.83641500   -0.01742000
 N                0   -7.81811800    2.11135800    0.63892500
 C                0   -7.92817400    0.81990800    0.88419600
 N                0   -9.13859300    0.38390500    1.37136700
 C                0   -6.86518000   -0.11631800    0.70195500
 C                0   -5.68971100    0.39729200    0.24802600
 H                0   -6.94377100   -1.17294600    0.92778600
 H                0   -4.84643300   -0.25386200    0.06936300
 H                0   -9.37552600   -0.58738500    1.24134500
 H                0   -4.33427600    3.32990500   -0.38138500
 H                0   -9.89380300    1.04719400    1.27174100
 H                0   -3.26131700    1.34530800    1.29186600
 H                0   -3.03589200   -0.37357500   -0.45346600
 H                0   -2.03763300    1.69914400   -2.40464500
 H                0   -3.33991400    0.45584700   -4.03868100
 H                0   -2.25494000    2.45956100    0.34274900
 H                0   -2.45880300   -0.75479100   -3.04612100
 C                0   -1.92362700   -2.71052300    1.47433000
 O                0   -4.01464600   -2.11706500    0.32040500
 P                0   -0.53004700   -1.39426200   -0.39467500
 O                0   -1.17793700   -1.94241600   -1.63254200
 O                0    0.38826900   -2.86028800    0.06370800
 O                0   -5.41014800   -3.76600000    2.23578400
 O                0   -1.35397000   -1.46755500    1.06590900
 C                0   -3.45344900   -2.60147500    1.53155300
 C                0   -4.10591900   -3.98039100    1.69009100
 C                0   -4.15028800   -4.48622600    0.22766200
 C                0   -4.05529100   -3.19610200   -0.62895900
 H                0   -1.54091400   -2.96341200    2.47224500
 H                0   -1.62114000   -3.51040000    0.79512500
 H                0   -3.76313900   -1.91254300    2.32301100
 H                0   -3.52006500   -4.64705600    2.34156300
 H                0   -3.30950600   -5.15672000    0.02584300
 H                0   -5.07292700   -5.04847600    0.04714900
 H                0   -4.91903000   -3.01625000   -1.27085400
 H                0   -3.14910700   -3.16927300   -1.24167400
 O                0    3.15800900    1.99832000    1.52466300
 H                0    3.57234400    2.77879500    1.94378700
 H                0    3.85536400    1.64031400    0.91800200
 O                0    0.28809800    1.27776800    1.57695500
 H                0    0.85190200    0.48935800    1.60929000
 H                0   -0.42458500    0.99397900    0.93149900
 O                0   -0.36122200    3.76014200   -0.07811600
 H                0   -0.23851200    4.71233300    0.03150100
 H                0   -0.22001700    3.56511500   -1.06337100
 O                0    1.14987300    3.78741000    2.63502800
 H                0    1.08200200    3.10693100    3.31621400
 H                0    2.05269600    4.20919300    2.69416000
 O                0    0.95200400   -0.66781500   -0.36260000
 H                0    1.50145600   -2.98641500   -0.77414000
 H                0    0.88928700    0.25656500   -0.67410700
 H                0   -5.06444200    0.09178800   -2.45438200
 H                0   -5.88098400   -4.60794400    2.19096800
 H                0    5.71762400   -1.44444200    5.00423200
 H                0    6.97575500   -0.33536300    4.42085100
 H                0    4.90412800   -6.21868900   -3.46677300
 H                0    3.34707400   -6.68482200   -2.75031400
 H                0    7.88673300   -1.47573400   -1.60529500
 H                0    7.51404700    0.19266200   -1.10786600
 H                0    3.90142500    4.51305200   -1.75785900
 H                0    5.62343000    4.96373500   -1.77358600
 H                0    3.51711800    1.27773200   -4.69039100

 1 2 1.0 6 1.0 118 1.0 119 1.0
 2 3 1.0 7 1.0 8 1.0
 3 4 1.5 5 2.0
 4 9 1.0 10 1.0
 5
 6
 7
 8
 9
 10
 11 12 1.0 16 1.0 120 1.0 121 1.0
 12 13 1.0 17 1.0 18 1.0
 13 14 2.0 15 2.0
 14 50 1.0
 15
 16
 17
 18
 19 20 1.0 24 1.0 25 1.0 122 1.0
 20 21 1.0 26 1.0 27 1.0
 21 22 1.5 23 2.0
 22 50 1.0
 23
 24
 25
 26
 27
 28 29 1.0 33 1.0 116 1.0 117 1.0
 29 30 1.0 34 1.0 35 1.0
 30 31 2.0 32 1.5
 31
 32
 33
 34
 35
 36 37 1.0 43 1.0 114 1.0 115 1.0
 37 38 1.0 44 1.0 45 1.0
 38 39 2.0 40 1.0
 39 42 1.5 47 1.0
 40 41 1.5 46 1.0
 41 42 2.0 48 1.0
 42
 43
 44
 45
 46
 47
 48
 49 82 1.0
 50 100 1.0 103 1.0
 51 52 1.0 56 1.0 59 1.0 70 1.0
 52 53 1.0 72 1.0 76 1.0
 53 54 1.0 55 1.0 73 1.0
 54
 55 56 1.0 57 1.0 74 1.0
 56
 57 58 1.0 75 1.0 77 1.0
 58 112 1.0
 59 60 1.0 66 1.5
 60 61 2.0 62 1.5
 61
 62 63 2.0
 63 64 1.5 65 1.5
 64 69 1.0 71 1.0
 65 66 2.0 67 1.0
 66 68 1.0
 67
 68
 69
 70
 71
 72
 73
 74
 75
 76
 77
 78 84 1.0 85 1.0 89 1.0 90 1.0
 79 85 1.0 88 1.0
 80 81 2.0 82 1.0 84 1.0 109 1.0
 81
 82
 83 86 1.0 113 1.0
 84
 85 86 1.0 91 1.0
 86 87 1.0 92 1.0
 87 88 1.0 93 1.0 94 1.0
 88 95 1.0 96 1.0
 89
 90
 91
 92
 93
 94
 95
 96
 97 98 1.0 99 1.0
 98
 99
 100 101 1.0 102 1.0
 101
 102
 103 104 1.0 105 1.0
 104
 105
 106 107 1.0 108 1.0
 107
 108
 109 111 1.0
 110
 111
 112
 113
 114
 115
 116
 117
 118
 119
 120
 121
 122

