%chk=Model2_RC_opt3.chk
%nprocshared=8
%mem=3GB
# opt b3lyp/6-31g(d,p) empiricaldispersion=gd3

Model 2 RC opt

-1 1
 C               -1   -0.62539600    5.60854100    1.84327800
 C                0    0.56166300    6.39590700    1.26459400
 C                0    1.79571100    5.50007300    1.13957100
 O                0    1.60925100    4.38041200    0.53422600
 O                0    2.87466900    5.85868000    1.66321100
 H                0   -1.49560300    6.26029700    1.98297400
 H                0    0.31327100    6.78943400    0.26579100
 H                0    0.81622300    7.25556800    1.88999700
 C               -1   -1.77887400    0.97337600    4.43951700
 C                0   -0.43937700    0.23156600    4.23484600
 C                0    0.71977900    1.21735600    4.08784000
 O                0    0.82490700    2.10619500    4.97526400
 O                0    1.48262800    1.11759700    3.06050300
 H                0   -2.60066300    0.26083400    4.56136800
 H                0   -2.00032100    1.60173400    3.57028000
 H                0   -0.23557300   -0.39687700    5.11148600
 H                0   -0.46664600   -0.42428700    3.36314600
 C               -1   -5.33454900   -4.39201800    4.11700800
 C                0   -5.29649900   -4.20236200    2.59450000
 C                0   -3.94288300   -3.67312500    2.19516900
 C                0   -2.82251400   -4.51044400    2.28659200
 C                0   -3.74343000   -2.32407700    1.88218900
 C                0   -1.53742400   -4.01958600    2.09081900
 C                0   -2.46330900   -1.81689800    1.67957300
 C                0   -1.36022500   -2.66739200    1.78665700
 O                0   -0.08871300   -2.20950800    1.61037500
 H                0   -4.56434700   -5.09913700    4.44125800
 H                0   -5.50304400   -5.15914700    2.09710500
 H                0   -6.08385500   -3.50924300    2.28142300
 H                0   -2.96099500   -5.56235300    2.52833300
 H                0   -4.58465300   -1.64672600    1.77932000
 H                0   -0.66668100   -4.66469700    2.16211900
 H                0   -2.31938500   -0.77201600    1.43077100
 H                0   -0.11518000   -1.40087900    1.01940500
 C               -1   -7.03630200   -2.82427700   -0.42309400
 C                0   -6.79482400   -1.35505500   -0.06280400
 C                0   -5.67693200   -0.65519600   -0.87098500
 O                0   -4.98133500    0.20243100   -0.27008100
 O                0   -5.59019200   -0.95380300   -2.10985700
 H                0   -7.24102500   -2.91526700   -1.49280600
 H                0   -7.71047600   -0.77882000   -0.25984400
 H                0   -6.58381300   -1.23274100    1.00425100
 C               -1   -4.41183600    5.15710600   -4.28708100
 C                0   -3.75372100    5.74772600   -3.03121200
 C                0   -2.55249100    4.96825900   -2.58852500
 C                0   -2.23687800    3.63791200   -2.68974900
 N                0   -1.47728000    5.55857400   -1.92685500
 C                0   -0.54846300    4.62786900   -1.64175800
 N                0   -0.99790500    3.46927400   -2.10603500
 H                0   -4.73747100    4.12987900   -4.09301500
 H                0   -3.45298800    6.78795100   -3.21585500
 H                0   -4.48731700    5.77932900   -2.21482400
 H                0   -1.41106700    6.52869500   -1.65741900
 H                0   -2.83311400    2.79677200   -3.03510100
 H                0    0.36901300    4.75198700   -1.06962200
 C                0    2.94036300   -2.98777000    0.89610100
 O                0    1.87238400   -3.90507100    0.84660400
 C                0    2.60467100   -1.66465800    0.18250300
 O                0    3.81198000   -0.86952400   -0.02149200
 C                0    2.07121600   -1.86968800   -1.23454200
 O                0    1.54156600   -0.64269100   -1.77720700
 C                0    3.36518000   -2.10725300   -2.01096800
 C                0    4.35809600   -1.15799900   -1.30653900
 H                0    4.47720300   -0.22294400   -1.85793300
 H                0    3.69134700   -3.14516300   -1.91014400
 H                0    1.33335100   -2.66606700   -1.30178100
 H                0    1.95205800   -1.05287700    0.80291000
 H                0    3.79974500   -3.46143600    0.40756300
 H                0    3.27136100   -1.87322500   -3.06866400
 H                0    3.24676600   -2.74560600    1.92752000
 P                0    0.23362600    0.18417800   -1.30772000
 C                0   -2.15811300   -0.84196500   -1.93779900
 O                0   -0.95156600   -0.12193200   -2.34060000
 C                0   -2.02063200   -2.32139500   -2.19085100
 O                0   -0.94091500   -2.83531900   -1.40843300
 C                0   -3.24914800   -3.14795500   -1.74377100
 O                0   -4.27057700   -3.22452900   -2.70469400
 C                0   -2.62014800   -4.53244300   -1.46488000
 C                0   -1.10445900   -4.26104300   -1.36645500
 O                0    0.66489100    1.63554800   -1.56660900
 O                0   -4.41064300    1.55999600   -2.64663000
 O                0   -0.16387300   -0.12387000    0.12841900
 H                0   -3.01920600   -4.97120700   -0.54780000
 H                0   -3.61820700   -2.72369000   -0.80160300
 H                0   -2.36776100   -0.64673100   -0.88629300
 H                0   -0.64537400   -4.60657200   -0.43826200
 H                0   -2.86038500   -5.19284000   -2.30317900
 H                0   -1.84276700   -2.50968000   -3.26325300
 H                0   -2.96981000   -0.41948900   -2.52647300
 H                0   -3.71020000    5.14289800   -5.12623000
 H                0   -5.28723500    5.74711500   -4.57298600
 H                0   -7.87705500   -3.24466700    0.14076300
 H                0   -6.14815000   -3.43054800   -0.21633500
 H                0   -6.30657100   -4.76965400    4.45807300
 H                0   -5.14091000   -3.44141900    4.62468400
 H                0   -4.83895400   -2.42646900   -2.57357500
 H                0   -0.91412200    4.78518800    1.18952200
 H                0   -0.34853600    5.16990400    2.80277500
 H                0   -4.43347500    1.34846800   -1.68465200
 H                0    1.08514200   -3.41416200    1.16840800
 H                0   -1.71802800    1.61710200    5.31997200
 H                0   -4.85069100    0.74232700   -2.94929500
 O                0    2.76089500    1.73761900    0.16577000
 H                0    3.13951800    0.83729200    0.14966300
 H                0    2.13328100    1.79738300   -0.59570800
 O                0    1.57633900    3.97891700    3.49439000
 H                0    1.37539900    3.31168300    4.24856400
 O                0   -0.10863200    2.33002600    1.26569100
 H                0   -0.22615800    2.75139100    0.40509800
 O                0    3.94431600    3.43876900    1.97173800
 H                0    4.23094400    3.11524800    1.10476500
 H                0    2.33557400    4.52538800    3.72711800
 H                0   -0.19701100    1.36656600    1.06887800
 H                0    3.74078000    4.40790000    1.81798100
 H                0   -0.39178900    2.57883100   -1.99413400
 H                0   -0.56314700   -4.71671200   -2.21044300
 Mg               0    1.89469000    2.70684200    1.84620300
 C                0    6.25063500   -2.01349400    0.06603800
 C                0    7.50070600   -2.54746600    0.16891200
 H                0    5.63151700   -1.77532800    0.92112700
 H                0    7.94130800   -2.75777400    1.13499600
 N                0    5.71303100   -1.73910300   -1.14601700
 N                0    7.69682900   -2.50064800   -2.24965300
 C                0    8.19445500   -2.78471700   -1.06004400
 C                0    6.45027100   -1.94416500   -2.35945100
 N                0    9.46398700   -3.29988500   -1.02820400
 H                0    9.76006400   -3.81380400   -0.21369400
 H                0    9.82527900   -3.60835900   -1.91908200
 O                0    5.91804700   -1.62373100   -3.41582500

