%chk=Model3_PC_opt4.chk
%nprocshared=8
%mem=32GB
# opt b3lyp/6-31g(d,p) empiricaldispersion=gd3

Model 3 freeze opt TS1

-1 1
 C               -1    6.53374900   -1.95367000    1.72249600
 C                0    7.35347100   -1.25081200    0.64002800
 C                0    6.52125000   -0.57662300   -0.44709700
 O                0    5.33977400   -0.15006600   -0.08421600
 O                0    6.98126100   -0.41209100   -1.58194200
 H                0    7.18920500   -2.35984400    2.50129900
 H                0    7.97292100   -0.45884500    1.08562900
 H                0    8.04280000   -1.93832300    0.14168400
 C               -1    1.90814100   -3.47651700    4.14021800
 C                0    2.22512300   -4.28337100    2.87945700
 C                0    2.60373500   -3.48202100    1.63031100
 O                0    2.47129000   -4.04636300    0.51749800
 O                0    3.07620700   -2.29614300    1.79248200
 H                0    1.00963000   -2.87263200    3.98230500
 H                0    2.73285500   -2.80084800    4.38185900
 H                0    3.07570700   -4.95581800    3.06145200
 H                0    1.38875500   -4.93127100    2.59949900
 C               -1   -2.42400800    3.35032600    4.71996800
 C                0   -1.50615200    3.86554600    3.61141900
 C                0   -2.17078500    3.78264900    2.25872300
 O                0   -1.98366300    4.87079000    1.51438000
 O                0   -2.80868900    2.80387800    1.89655500
 H                0   -3.30603200    3.98977400    4.83476400
 H                0   -1.17280800    4.89025800    3.79487900
 H                0   -0.61555500    3.22827700    3.52544600
 C               -1   -5.75030700    3.34748100    0.57113300
 C                0   -5.92152300    2.00791200    1.30120000
 C                0   -5.47766900    0.84390300    0.42163300
 N                0   -4.16059200    0.80487500    0.17073000
 O                0   -6.29245700    0.02692900   -0.03867500
 H                0   -4.70049300    3.53489300    0.33783100
 H                0   -5.31766100    2.01873400    2.21551300
 H                0   -6.96729000    1.83414900    1.56698300
 H                0   -3.53420700    1.50802300    0.54351500
 H                0   -3.77128200    0.09904700   -0.44874300
 C               -1    5.60770100    5.09795400    0.48159100
 C                0    5.64283000    3.64901800   -0.02626200
 C                0    4.42572800    3.24056700   -0.80105200
 C                0    3.28799800    3.91251800   -1.16563300
 N                0    4.27648600    1.95201700   -1.28129200
 C                0    3.08790700    1.83952700   -1.87854700
 N                0    2.47648700    3.02127900   -1.84166500
 H                0    4.74952500    5.26075600    1.14131700
 H                0    6.53051000    3.49475200   -0.65352400
 H                0    5.75261700    2.95721800    0.81872400
 H                0    4.83607800    1.11332500   -0.96493500
 H                0    2.98669600    4.93114900   -0.98743300
 H                0    2.67558000    0.90860000   -2.24393200
 C                0   -0.40991400    0.20022800    2.45291300
 O                0    0.46152800    1.31843300    2.30557700
 C                0    0.02260300   -0.97194200    1.56970700
 O                0   -0.62188600   -2.18225000    2.04433400
 C                0   -0.36573400   -0.88091300    0.08085700
 O                0    0.49171300   -0.08636600   -0.72277800
 C                0   -0.43196200   -2.36205900   -0.30585400
 C                0   -1.02132100   -2.99791200    0.95445300
 H                0   -0.67676300   -4.02176800    1.10665200
 H                0   -1.03636200   -2.56627900   -1.18864000
 H                0   -1.36066800   -0.43263700    0.00843600
 H                0    1.10025500   -1.11443300    1.67464600
 H                0   -1.44782300    0.49013900    2.23645800
 H                0    0.57771000   -2.76001600   -0.44593200
 H                0   -0.35819600   -0.12107700    3.49975700
 P                0   -0.88229700    2.91744600   -1.12341400
 C                0   -2.33109400    1.25279000   -2.59045900
 O                0   -1.82937400    1.61594200   -1.30075200
 C                0   -2.18772300   -0.25726300   -2.75943000
 O                0   -3.01744300   -0.96636600   -1.82516000
 C                0   -2.62888200   -0.74719900   -4.14615600
 O                0   -2.04070300   -1.99865800   -4.48415900
 C                0   -4.12205200   -0.99956500   -3.92864300
 C                0   -4.14995300   -1.56884600   -2.50792600
 O                0   -0.08033200    3.20996600   -2.38303900
 O                0   -2.05860200    4.12563100   -1.09049000
 O                0   -0.21981600    2.85761100    0.21542800
 H                0   -4.67371300   -0.05547600   -3.99154500
 H                0   -2.43084200    0.00358700   -4.92700500
 H                0   -3.38382500    1.55335700   -2.65031900
 H                0   -5.05228500   -1.30712200   -1.94700000
 H                0   -4.52059900   -1.69165200   -4.67389400
 H                0   -1.14220000   -0.50717900   -2.54247900
 H                0   -1.75828100    1.76390500   -3.37166000
 H                0    5.53349900    5.80587900   -0.35075300
 H                0    6.51733300    5.32841000    1.04254000
 H                0   -1.90017100    3.31899200    5.68010900
 H                0   -2.76982900    2.34188600    4.47957200
 H                0   -6.32020300    3.35491000   -0.36463900
 H                0   -6.11012300    4.17625400    1.19077300
 H                0   -1.09786600   -1.95917900   -4.27737900
 H                0    5.83755400   -1.25926000    2.20035300
 H                0    5.95365700   -2.77133900    1.29604700
 H                0   -2.19331900    4.64987000    0.57345300
 H                0    0.17764200    1.83731200    1.51176600
 H                0    1.73335000   -4.14046500    4.99395000
 H                0   -1.80069200    4.78232400   -1.75186400
 O                0    2.62513500   -1.18768900   -1.52741200
 H                0    2.41173400   -2.08114600   -1.82654200
 H                0    1.25930700   -0.63565200   -1.10291600
 O                0    4.67360700   -2.98533200   -0.59585100
 H                0    3.91919100   -3.60250900   -0.44175400
 O                0    2.65501600    0.54508600    0.76295300
 H                0    2.28390700    0.76614200    1.63690500
 O                0    4.89976300   -1.75509700   -3.01387300
 H                0    4.09824000   -1.31480900   -2.65729100
 H                0    4.79052000   -2.81312200   -1.56179600
 H                0    1.83540500    0.57142700    0.20781400
 H                0    5.64014700   -1.19100400   -2.71354600
 H                0    1.45561900    3.16050900   -2.11893000
 H                0   -4.01684600   -2.65291500   -2.49518200
 Mg               0    3.67234700   -1.24435300    0.18151000
 C                0   -3.28048000   -2.20670500    1.63265800
 C                0   -4.62974200   -2.18131900    1.46996400
 H                0   -2.75387200   -1.57647400    2.33593000
 H                0   -5.25561200   -1.50045500    2.02759000
 N                0   -2.50903300   -3.04507700    0.90102700
 N                0   -4.43734900   -3.89519100   -0.23149800
 C                0   -5.16347000   -3.01891000    0.44285800
 C                0   -3.08410000   -3.97002300   -0.02473700
 N                0   -6.49932900   -2.91117200    0.13872200
 H                0   -6.83517100   -1.95165500    0.18256800
 H                0   -6.73533000   -3.39140800   -0.72045200
 O                0   -2.33390400   -4.74313500   -0.61532700

