%nprocshared=8
%mem=30GB
# freq b3lyp/6-31g(d,p) empiricaldispersion=gd3

Title Card Required

-3 1
 C               -1   -6.30833200    1.95233600    2.47790700
 C                0   -5.85575700    1.63648500    1.04430900
 C                0   -4.49759900    0.94752600    1.03736400
 N                0   -4.48974000   -0.33967800    0.67752000
 O                0   -3.48278400    1.58382100    1.39667700
 H                0   -6.47212300    1.02805600    3.04217800
 H                0   -6.59532600    1.01083000    0.53836700
 H                0   -5.73080000    2.56940900    0.48398700
 H                0   -5.34488200   -0.76496900    0.30024400
 H                0   -3.62008000   -0.86477200    0.61324500
 C               -1   -1.96660300    6.08181600    3.11918300
 C                0   -1.06256500    7.25467600    2.70751200
 C                0   -0.11900300    6.83405800    1.56785000
 O                0    0.60335300    5.80894000    1.82481100
 O                0   -0.13141600    7.47442600    0.49308600
 H                0   -1.34771100    5.21289500    3.35590300
 H                0   -1.64706700    8.12446300    2.38733500
 H                0   -0.44312200    7.55675600    3.56394800
 C               -1   -1.49764600    2.11813200    4.54607300
 C                0   -0.00074400    2.36518100    4.70269500
 C                0    0.69402000    2.74020400    3.39347400
 O                0   -0.05576900    2.99202000    2.40162700
 O                0    1.95552600    2.79134800    3.39920500
 H                0   -1.67448000    1.29936600    3.84602700
 H                0   -1.99963300    2.99943600    4.13976900
 H                0    0.19515800    3.18285900    5.41118600
 H                0    0.51092300    1.48184400    5.09464400
 C               -1   -3.04758800   -4.66942800    6.01138900
 C                0   -1.59445200   -4.93384900    5.57306700
 C                0   -0.99278100   -3.74233700    4.86261800
 C                0   -0.22411800   -2.79312500    5.54542600
 C                0   -1.26871700   -3.50413700    3.50828100
 C                0    0.22719900   -1.63867600    4.90971800
 C                0   -0.83583700   -2.35636100    2.85177300
 C                0   -0.09469800   -1.39540100    3.56494400
 O                0    0.33997800   -0.24376300    3.01627800
 H                0   -3.09231900   -3.80960400    6.68867200
 H                0   -0.99159600   -5.19179700    6.45502000
 H                0   -1.57649600   -5.81387800    4.91569800
 H                0    0.01629100   -2.95313800    6.59643300
 H                0   -1.84379700   -4.23564300    2.94732200
 H                0    0.81892300   -0.89798900    5.43870800
 H                0   -1.06182000   -2.21530800    1.79979400
 H                0   -0.17279000   -0.02956800    2.18919100
 C               -1    3.83436600   -5.47674200    0.39414900
 C                0    3.87387700   -3.96599800    0.11296600
 C                0    4.23305000   -3.59896400   -1.31650100
 N                0    3.52612600   -4.20578900   -2.29573700
 O                0    5.13583300   -2.77538700   -1.57275500
 H                0    3.03978800   -5.96328100   -0.17960800
 H                0    2.88448800   -3.53038400    0.30463100
 H                0    4.57676200   -3.45004000    0.76866500
 H                0    2.62623300   -4.64367400   -2.07366000
 H                0    3.58282700   -3.73530100   -3.19393100
 C               -1   -5.57914000   -4.02721900    1.32345100
 C                0   -4.08004900   -3.76699800    1.24985900
 C                0   -3.58739700   -3.32684600   -0.14355100
 O                0   -4.22891500   -3.69661500   -1.15544300
 O                0   -2.51921200   -2.62298500   -0.15261700
 H                0   -6.14409000   -3.10987500    1.13013700
 H                0   -3.76220200   -3.02133800    1.98425500
 H                0   -3.52645500   -4.68648800    1.49258000
 C               -1   -2.25139100   -6.40484600   -1.43694400
 C                0   -1.11243000   -5.82842300   -0.57207400
 C                0   -0.10247300   -5.05167100   -1.40973300
 N                0   -0.51969300   -3.85360100   -1.85616100
 O                0    0.99515700   -5.55981300   -1.70843900
 H                0   -2.86917300   -5.59782200   -1.83857900
 H                0   -1.52689600   -5.15927100    0.18902200
 H                0   -0.55684300   -6.62665700   -0.07170800
 H                0   -1.26964300   -3.35345900   -1.35474700
 H                0    0.19083100   -3.27851600   -2.29301200
 C               -1   -8.32381900   -4.09949700   -1.87528300
 C                0   -8.56096600   -2.90509000   -0.94836900
 C                0   -7.52362000   -1.79187000   -1.18362100
 O                0   -7.24124200   -1.55836000   -2.40292000
 O                0   -7.05398100   -1.20891900   -0.17508900
 H                0   -7.31821300   -4.50249100   -1.71398400
 H                0   -9.55995600   -2.48002400   -1.12843000
 H                0   -8.51703200   -3.19818800    0.10463100
 C               -1   -3.54970600    5.83250500   -4.32286500
 C                0   -2.67993100    4.57222900   -4.34671900
 C                0   -1.88716400    4.51296700   -3.03144000
 O                0   -2.59231700    4.26350900   -2.00147300
 O                0   -0.66439400    4.77722400   -3.09278600
 H                0   -4.16537400    5.93143500   -5.22717600
 H                0   -3.31274100    3.68094500   -4.42927700
 H                0   -1.98488100    4.59276600   -5.19214900
 C               -1   -6.06071900    3.17300200   -3.12901300
 C                0   -6.20293400    1.74509500   -2.58912500
 C                0   -4.91392800    0.97876700   -2.48733700
 C                0   -3.60816200    1.34780800   -2.27477700
 N                0   -4.93612700   -0.40508600   -2.52596200
 C                0   -3.70578900   -0.87387100   -2.32585000
 N                0   -2.88022200    0.17154600   -2.18589800
 H                0   -5.75125600    3.16883600   -4.17973500
 H                0   -6.66527900    1.77374800   -1.59587000
 H                0   -6.89575500    1.16181200   -3.20626700
 H                0   -5.86665600   -0.96424000   -2.51286100
 H                0   -3.15556600    2.32627000   -2.15299900
 H                0   -3.44904100   -1.91946900   -2.21049800
 H                0   -1.87329300    0.06606200   -1.97521100
 Mg               0    0.35992500    4.08153100    0.72012300
 C                0    5.08621400    1.52644800    0.59894600
 C                0    4.12861400    1.29038700   -0.56511900
 C                0    3.22951200    0.14569200   -0.08598500
 O                0    1.95875200    0.26900700   -0.74376200
 C                0    3.17771000    0.37617800    1.43876500
 O                0    4.40148900    1.10055400    1.76040600
 C                0    3.19614300   -0.87554300    2.31210200
 O                0    4.46974100   -1.52684800    2.22381200
 N                0    6.38123300    0.79348900    0.46512800
 C                0    7.58466500    1.43405300    0.92356800
 O                0    7.55133500    2.59607900    1.30964100
 N                0    8.74304400    0.68375900    0.90737700
 C                0    8.73117900   -0.54747000    0.43611000
 N                0    9.94699600   -1.21735900    0.42290400
 C                0    7.57201600   -1.19255300   -0.07374400
 C                0    6.41452500   -0.47606400   -0.01320200
 H                0    7.55285900   -2.19486700   -0.48107200
 H                0    5.49944200   -0.93084700   -0.35998400
 H                0    9.88724200   -2.22325400    0.49685200
 H                0    5.37044900    2.56921800    0.72099600
 H                0   10.62747300   -0.79230200    1.03913100
 H                0    4.62419000    1.11282700   -1.52062400
 H                0    3.63620700   -0.84471800   -0.30608500
 H                0    2.32037000    1.00560400    1.68776100
 H                0    2.97445900   -0.58019700    3.34529100
 H                0    3.49940700    2.18275600   -0.63966400
 H                0    2.43182800   -1.57337900    1.97427600
 C                0    1.96718700   -0.95225200   -3.43742200
 O                0    3.80463400   -2.14025600   -4.46974400
 P                0    0.99111500   -1.06735500   -0.97090700
 O                0    1.13204500   -2.02954300    0.15629100
 O                0   -0.32619300   -0.49606400   -1.43942800
 O                0    4.23424800    1.38821100   -3.92981100
 O                0    1.70659500   -1.76914900   -2.29845800
 C                0    3.45377000   -0.96584600   -3.72200700
 C                0    3.99730200    0.16543400   -4.60832100
 C                0    5.33234500   -0.43091900   -5.10098500
 C                0    5.18519600   -1.94652000   -4.80747900
 H                0    1.62351600    0.07477600   -3.26489300
 H                0    1.42312200   -1.34924200   -4.30307500
 H                0    3.99621500   -0.96338300   -2.76753600
 H                0    3.30858300    0.31577500   -5.45605200
 H                0    5.51193800   -0.21918100   -6.15913100
 H                0    6.14304800    0.01614600   -4.51881200
 H                0    5.80052600   -2.25267200   -3.95227700
 H                0    5.40779300   -2.58507000   -5.66846200
 O                0   -1.74267000    4.23237100    0.48945500
 H                0   -2.02730900    4.23991600   -0.47289000
 H                0   -2.21003700    3.49800700    0.91662600
 O                0    0.15871500    2.36237600   -0.43834300
 H                0   -0.35779700    1.71409200    0.09688900
 H                0    0.94760600    1.84876900   -0.67405500
 O                0    2.46759100    3.69382400    1.04017100
 H                0    2.74443500    4.61376900    1.15348800
 H                0    2.39651600    3.31829300    1.99035100
 O                0    0.75241100    5.26814000   -0.93093200
 H                0    0.19145800    5.06428700   -1.73328800
 H                0    0.51308800    6.17304100   -0.61723900
 O                0   -1.15669100    0.42882000    0.97999100
 H                0   -1.21835200   -0.17436100    0.21452600
 H                0   -2.04557200    0.82504400    1.18977300
 H                0    5.10835300   -0.81337100    2.37449400
 H                0    3.41004700    1.67789400   -3.51249000
 H                0   -1.84488700   -7.00335500   -2.26098100
 H                0   -2.90112300   -7.05028800   -0.83435000
 H                0    4.78861000   -5.95890400    0.14586200
 H                0    3.63395000   -5.65094200    1.45688700
 H                0   -3.66846200   -4.43258100    5.14139700
 H                0   -3.48670700   -5.53689200    6.52292400
 H                0   -2.58975000    6.33521000    3.98711500
 H                0   -2.61165000    5.78575600    2.28833600
 H                0   -4.21176500    5.80906800   -3.45312000
 H                0   -2.92185100    6.72722800   -4.24076700
 H                0   -5.29763700    3.72942200   -2.57362400
 H                0   -7.01135600    3.71217600   -3.05380300
 H                0   -7.24524400    2.52037400    2.47495000
 H                0   -5.54320000    2.53846200    2.99537300
 H                0   -9.05527500   -4.90135400   -1.70715700
 H                0   -8.37934000   -3.77506900   -2.91743700
 H                0   -5.87349500   -4.41680600    2.30740800
 H                0   -5.86803600   -4.75063600    0.55516300
 H                0   -1.96041600    1.85763000    5.50724800

 1 2 1.0 6 1.0 179 1.0 180 1.0
 2 3 1.0 7 1.0 8 1.0
 3 4 1.5 5 2.0
 4 9 1.0 10 1.0
 5
 6
 7
 8
 9
 10
 11 12 1.0 16 1.0 173 1.0 174 1.0
 12 13 1.0 17 1.0 18 1.0
 13 14 2.0 15 2.0
 14 103 1.0
 15
 16
 17
 18
 19 20 1.0 24 1.0 25 1.0 185 1.0
 20 21 1.0 26 1.0 27 1.0
 21 22 2.0 23 2.0
 22 103 1.0
 23
 24
 25
 26
 27
 28 29 1.0 37 1.0 171 1.0 172 1.0
 29 30 1.0 38 1.0 39 1.0
 30 31 1.5 32 1.5
 31 33 1.5 40 1.0
 32 34 1.5 41 1.0
 33 35 1.5 42 1.0
 34 35 1.5 43 1.0
 35 36 1.0
 36 44 1.0
 37
 38
 39
 40
 41
 42
 43
 44
 45 46 1.0 50 1.0 169 1.0 170 1.0
 46 47 1.0 51 1.0 52 1.0
 47 48 1.5 49 2.0
 48 53 1.0 54 1.0
 49
 50
 51
 52
 53
 54
 55 56 1.0 60 1.0 183 1.0 184 1.0
 56 57 1.0 61 1.0 62 1.0
 57 58 2.0 59 2.0
 58
 59
 60
 61
 62
 63 64 1.0 68 1.0 167 1.0 168 1.0
 64 65 1.0 69 1.0 70 1.0
 65 66 1.5 67 2.0
 66 71 1.0 72 1.0
 67
 68
 69
 70
 71
 72
 73 74 1.0 78 1.0 181 1.0 182 1.0
 74 75 1.0 79 1.0 80 1.0
 75 76 2.0 77 2.0
 76
 77
 78
 79
 80
 81 82 1.0 86 1.0 175 1.0 176 1.0
 82 83 1.0 87 1.0 88 1.0
 83 84 2.0 85 2.0
 84
 85
 86
 87
 88
 89 90 1.0 96 1.0 177 1.0 178 1.0
 90 91 1.0 97 1.0 98 1.0
 91 92 2.0 93 1.0
 92 95 1.0 100 1.0
 93 94 1.5
 94 95 1.5 101 1.0
 95 102 1.0
 96
 97
 98
 99
 100
 101
 102
 103 150 1.0 153 1.0 159 1.0
 104 105 1.0 109 1.0 112 1.0 123 1.0
 105 106 1.0 125 1.0 129 1.0
 106 107 1.0 108 1.0 126 1.0
 107 133 1.0
 108 109 1.0 110 1.0 127 1.0
 109
 110 111 1.0 128 1.0 130 1.0
 111 165 1.0
 112 113 1.0 119 1.5
 113 114 2.0 115 1.5
 114
 115 116 2.0
 116 117 1.0 118 1.5
 117 122 1.0 124 1.0
 118 119 2.0 120 1.0
 119 121 1.0
 120
 121
 122
 123
 124
 125
 126
 127
 128
 129
 130
 131 137 1.0 138 1.0 142 1.0 143 1.0
 132 138 1.0 141 1.0
 133 134 2.0 135 2.0 137 1.0
 134
 135
 136 139 1.0 166 1.0
 137
 138 139 1.0 144 1.0
 139 140 1.0 145 1.0
 140 141 1.0 146 1.0 147 1.0
 141 148 1.0 149 1.0
 142
 143
 144
 145
 146
 147
 148
 149
 150 151 1.0 152 1.0
 151
 152
 153 154 1.0 155 1.0
 154
 155
 156 157 1.0
 157
 158
 159 160 1.0 161 1.0
 160
 161
 162 163 1.0 164 1.0
 163
 164
 165
 166
 167
 168
 169
 170
 171
 172
 173
 174
 175
 176
 177
 178
 179
 180
 181
 182
 183
 184
 185














