%chk=ref-TS1-6.chk
%nprocshared=16
%mem=50GB
# freq b3lyp/6-31g(d,p) empiricaldispersion=gd3

Title Card Required

-1 1
 C               -1    5.48094900   -4.26001300   -0.34142300
 C                0    4.34732000   -3.57197000    0.42979000
 C                0    3.79546500   -2.40115300   -0.37209800
 N                0    2.47287000   -2.30331300   -0.48585000
 O                0    4.60515700   -1.61652600   -0.91266000
 H                0    5.10759900   -4.71787500   -1.26370900
 H                0    3.54778300   -4.27324200    0.68977200
 H                0    4.73096800   -3.16420300    1.37077200
 H                0    1.85723900   -2.85983100    0.09647100
 H                0    2.05745800   -1.53265400   -1.01766100
 C               -1    7.23650600    0.70376800   -0.27944500
 C                0    7.00713600    1.95715200    0.59374400
 C                0    5.96899400    2.86483500   -0.06608900
 O                0    4.74211100    2.65760900    0.22369600
 O                0    6.40052700    3.69273200   -0.90734000
 H                0    8.13329400    0.16628300    0.05799100
 H                0    6.66608900    1.68274200    1.59949200
 H                0    7.94267100    2.51679500    0.68750400
 C               -1    3.87750200   -1.11207700   -4.14925800
 C                0    2.41259400   -0.60805100   -4.21754600
 C                0    2.01614700    0.27315400   -3.02565100
 O                0    1.34852500   -0.27483100   -2.09767100
 O                0    2.41498600    1.47838900   -3.00442300
 H                0    4.10722400   -1.57414000   -3.18735900
 H                0    4.58897100   -0.29965500   -4.33410300
 H                0    2.26909500   -0.03377000   -5.13868700
 H                0    1.73350100   -1.46485300   -4.23142000
 C               -1   -0.69506700   -5.47747900   -5.40187000
 C                0   -1.82172000   -5.69869600   -4.38395300
 C                0   -1.95855500   -4.46647000   -3.52781300
 C                0   -3.03247000   -3.58020300   -3.64866800
 C                0   -0.88890400   -4.10110500   -2.70004500
 C                0   -3.04159500   -2.36312200   -2.96764800
 C                0   -0.87059000   -2.89313000   -2.02517900
 C                0   -1.95464100   -2.01400500   -2.16025000
 O                0   -1.97217900   -0.82916600   -1.51095800
 H                0   -0.90722500   -4.59862200   -6.01910200
 H                0   -2.76296600   -5.91213700   -4.90464900
 H                0   -1.59263000   -6.58163600   -3.77077800
 H                0   -3.87050400   -3.83852700   -4.29274200
 H                0   -0.03401700   -4.76688300   -2.61309600
 H                0   -3.87846000   -1.67689300   -3.04037900
 H                0   -0.03513000   -2.60135200   -1.40796600
 H                0   -1.24296900   -0.84246300   -0.78520700
 C               -1   -6.50966300    0.55182600   -2.54352300
 C                0   -5.55107600    1.74190800   -2.40827800
 C                0   -5.14684400    2.13115500   -0.99123700
 N                0   -4.95574900    1.12380400   -0.11630200
 O                0   -4.95564100    3.32112200   -0.68837800
 H                0   -6.07426700   -0.37773000   -2.16618400
 H                0   -4.61376900    1.52867300   -2.93995900
 H                0   -5.97710800    2.64446900   -2.85580400
 H                0   -5.03833100    0.13364400   -0.34854700
 H                0   -4.64088800    1.33119900    0.82261900
 C               -1   -0.36727900   -7.00706100   -0.55218500
 C                0    0.51922400   -5.90902500    0.05090900
 C                0   -0.21485500   -4.77965700    0.77271300
 O                0    0.64823000   -3.91218100    1.29972300
 O                0   -1.42962700   -4.69220800    0.85983000
 H                0   -0.94260200   -7.51540900    0.22704200
 H                0    1.23864500   -6.32816100    0.76539500
 H                0    1.13080400   -5.42859300   -0.72299800
 C               -1   -4.94767000   -4.79620700    1.00008000
 C                0   -4.46858500   -4.06941500   -0.26689100
 C                0   -4.34179100   -2.58268000    0.01341400
 N                0   -3.28584600   -2.22443200    0.76990900
 O                0   -5.21999000   -1.78035100   -0.34792000
 H                0   -4.18991400   -4.72782500    1.78518800
 H                0   -3.50331000   -4.47329000   -0.58472200
 H                0   -5.18468700   -4.18350000   -1.08291500
 H                0   -2.47902100   -2.83762400    0.84883600
 H                0   -3.12800700   -1.23688600    0.91262300
 C               -1    5.50476300   -3.23722600    5.51642000
 C                0    6.16771300   -2.38524200    4.42251000
 C                0    5.15361800   -1.68433300    3.57360900
 C                0    3.78450100   -1.77300700    3.54900500
 N                0    5.45510000   -0.74249600    2.59818700
 C                0    4.29151600   -0.30586400    2.03867100
 N                0    3.26693500   -0.92345500    2.59795600
 H                0    4.86908500   -4.01109900    5.07531500
 H                0    6.83617700   -1.64741600    4.88770600
 H                0    6.80956700   -3.02376800    3.79860300
 H                0    6.37389800   -0.44850100    2.30124800
 H                0    3.14433500   -2.39890900    4.15235000
 H                0    4.23566100    0.45091600    1.26449300
 C                0   -1.99451300    2.46536500   -2.39966900
 O                0   -2.34802300    1.29949000   -3.11531100
 C                0   -0.98205600    2.24704100   -1.26985900
 O                0   -0.48687900    3.57797500   -0.93656600
 C                0   -1.50272900    1.70997000    0.07945900
 O                0   -0.39434700    1.24706500    0.83024600
 C                0   -2.01741600    2.97483900    0.77139500
 C                0   -0.92499900    3.96636700    0.37828400
 H                0   -0.07862700    3.90154100    1.06030700
 H                0   -3.00985000    3.24302500    0.40589300
 H                0   -2.28631100    0.96236100   -0.04359300
 H                0   -0.14511400    1.64023800   -1.62280700
 H                0   -2.87910100    2.97810400   -1.99446900
 H                0   -2.05744200    2.82270700    1.85016100
 H                0   -1.51984500    3.16062700   -3.10322300
 P                0   -0.31370000   -0.27850600    1.62814300
 C                0   -2.33847400   -0.62886600    3.45974700
 O                0   -1.71524600    0.12004000    2.42783500
 C                0   -3.67960200    0.03378500    3.75327100
 O                0   -4.44833200    0.13966100    2.54909000
 C                0   -4.52113800   -0.80763400    4.73690400
 O                0   -5.36432200   -0.00524600    5.56468700
 C                0   -5.43081300   -1.59004400    3.78809100
 C                0   -5.70281000   -0.55153800    2.70303800
 O                0    0.99977400    0.30915400    2.35334700
 O                0   -0.13774900   -1.83306400    2.61053300
 O                0   -0.38779100   -1.16536300    0.38020500
 H                0   -4.88981100   -2.44132800    3.36485500
 H                0   -3.88529600   -1.46281700    5.35191800
 H                0   -2.48610100   -1.67048500    3.16659700
 H                0   -5.96559000   -0.97457400    1.73262500
 H                0   -6.32977400   -1.94494000    4.29743700
 H                0   -3.50453400    1.04631600    4.14776600
 H                0   -1.72864900   -0.61636100    4.37447200
 H                0    4.88012900   -2.61712300    6.16619100
 H                0    6.26013000   -3.73117900    6.13413100
 H                0    0.24612900   -7.74728900   -1.07427300
 H                0   -1.08009200   -6.57500900   -1.25902400
 H                0   -0.56796600   -6.34112900   -6.06727400
 H                0    0.25962000   -5.29912900   -4.89884400
 H                0   -7.44265300    0.72422700   -1.99514000
 H                0   -5.87995400   -4.35842100    1.37348600
 H                0   -5.12759500   -5.85727500    0.79771900
 H                0   -4.81358800    0.67203000    5.97824800
 H                0    6.23789800   -3.52282900   -0.61746800
 H                0    5.94838900   -5.04508600    0.26195100
 H                0   -6.76396400    0.39446400   -3.59720200
 H                0    6.39461400    0.01284200   -0.24488100
 H                0    7.38121300    0.99217200   -1.32136900
 H                0    0.21817500   -3.10667600    1.77558600
 H                0   -2.25946200    0.52664200   -2.51989500
 H                0    4.04781000   -1.85583600   -4.93513600
 H                0    0.28565600   -1.66967200    3.46291400
 O                0    2.12567800    4.01253000   -1.01009300
 H                0    1.16148600    3.82862200   -1.13393000
 H                0    2.13138300    4.59932700   -0.23477200
 O                0    4.78404600    0.87021000   -1.88087000
 H                0    4.65881600    0.81797200   -2.83459100
 O                0    2.29251400    1.10227000   -0.11055700
 H                0    1.69347400    1.36043800    0.60958100
 O                0    4.44818800    3.68116000   -2.57545800
 H                0    3.89887400    4.47613100   -2.54861600
 H                0    4.61389000   -0.03909000   -1.52907000
 H                0    1.72698000    0.57149800   -0.74105700
 H                0    5.25150200    3.85998800   -1.98124900
 H                0    1.78445400   -0.32669400    2.43454500
 H                0   -6.47809800    0.15611700    3.02596000
 Mg               0    3.38983300    2.36000000   -1.31065200
 C                0   -2.51354000    5.77435300   -0.13931200
 C                0   -2.81020700    7.09506100   -0.27845000
 H                0   -3.23397300    4.99834200   -0.37933900
 H                0   -3.77907600    7.41262100   -0.64252200
 N                0   -1.29344300    5.37931000    0.31942400
 N                0   -0.57061100    7.65927400    0.46428900
 C                0   -1.77971400    8.02180000    0.07573400
 C                0   -0.24030400    6.33420100    0.52837400
 N                0   -2.01957500    9.36611300   -0.01749200
 H                0   -2.97103000    9.69647400   -0.02002900
 H                0   -1.32082300    9.96374500    0.39895900
 O                0    0.89704400    5.93367900    0.77588100

