%nprocshared=8
%mem=30GB
# freq b3lyp/6-31g(d,p) empiricaldispersion=gd3

M1 TS1 opt4

-1 1
 C               -1    3.75235300   -5.51237400    0.34475800
 C                0    2.36268400   -5.33784800   -0.24622700
 O                0    2.01296900   -4.14155200   -0.54883900
 O                0    1.61492200   -6.34444700   -0.30326600
 H                0    4.47363200   -4.81143900   -0.08323800
 H                0    4.10391200   -6.54096000    0.23992000
 C               -1   -0.51900400   -1.09949500    3.94733900
 C                0   -0.42445800   -2.46976600    3.30575700
 O                0   -0.00304600   -3.42547100    4.00294900
 O                0   -0.72509300   -2.53935100    2.06024500
 H                0   -0.39751100   -1.16652300    5.02962700
 H                0   -1.45295000   -0.59389800    3.69701300
 C               -1    3.51769900    6.17547400    1.43219700
 C                0    4.59709500    5.10602400    1.20526900
 C                0    4.00934300    3.85343900    0.55228200
 O                0    3.19078900    3.19332800    1.31090400
 O                0    4.29910300    3.56137600   -0.62227400
 H                0    3.09987400    6.51076700    0.47635400
 H                0    5.39551100    5.48850500    0.56326200
 H                0    5.03057500    4.81725100    2.16978700
 C               -1    8.09785600   -0.64524600   -2.81287200
 C                0    7.55179900   -0.56963600   -1.37452500
 C                0    6.10864300   -0.94262900   -1.25279700
 C                0    4.99826500   -0.22316900   -0.89134300
 N                0    5.62708600   -2.21778600   -1.53397900
 C                0    4.28082100   -2.22143900   -1.33768400
 N                0    3.87434400   -1.02734500   -0.94607000
 H                0    7.53321000    0.01833600   -3.47419800
 H                0    8.16200700   -1.20846100   -0.71993300
 H                0    7.66044200    0.45074900   -0.99381600
 H                0    6.18035000   -3.01312200   -1.81298700
 H                0    4.92977000    0.81806800   -0.60873200
 H                0    3.63207300   -3.08395900   -1.43482400
 C                0   -3.01750700    0.57084800    1.71201000
 O                0   -2.05454100    1.42617500    2.31159300
 C                0   -2.37556500   -0.19312900    0.56135800
 O                0   -3.23017500   -1.24709900    0.02451200
 C                0   -2.03990100    0.70590600   -0.63086400
 O                0   -0.85375200    0.25756400   -1.28363700
 C                0   -3.24672900    0.53336900   -1.55883200
 C                0   -3.84014400   -0.83732000   -1.18407100
 H                0   -3.65790900   -1.59177200   -1.95322600
 H                0   -3.98355000    1.31883500   -1.37351900
 H                0   -1.92938300    1.74996300   -0.33157600
 H                0   -1.49867100   -0.70326500    0.95448300
 H                0   -3.86764300    1.17672400    1.36147800
 H                0   -2.95894000    0.57968500   -2.60734100
 H                0   -3.40226000   -0.15214300    2.44799500
 P                0    0.60805200    0.87694300   -0.64216900
 C                0    0.63747500    3.53870200   -0.55976700
 O                0    0.30420100    2.35217500   -1.28823300
 C                0   -0.53082000    4.51384300   -0.66258600
 O                0   -1.72311600    3.94582800   -0.11808500
 C                0   -0.26233200    5.78956000    0.15499100
 O                0   -1.03686200    6.90059400   -0.30204700
 C                0   -0.80722600    5.39179600    1.52740700
 C                0   -2.02999100    4.54396000    1.15610900
 O                0    1.35685800   -0.18342100   -1.59030900
 O                0    2.44865300    1.50311000   -0.23608400
 O                0    0.39798300    0.69864800    0.85927900
 H                0   -0.06146200    4.79771400    2.06431000
 H                0    0.80638300    6.04317000    0.18226700
 H                0    0.83125700    3.30538500    0.48841400
 H                0   -2.23395500    3.73772600    1.86536900
 H                0   -1.05483100    6.27139600    2.12635400
 H                0   -0.71749900    4.74164800   -1.72225900
 H                0    1.54644400    3.98323600   -0.98268600
 H                0    8.02094000   -1.66086200   -3.21767200
 H                0    9.15242300   -0.35283100   -2.84617600
 H                0    3.92207100    7.05388000    1.94666000
 H                0    2.70293800    5.76367800    2.03439800
 H                0   -0.87426900    6.99973600   -1.24900300
 H                0    2.74750800    2.26041400    0.62609100
 H                0   -1.17611700    1.22904000    1.92511300
 H                0    2.90399800    1.93791800   -0.97849900
 O                0   -0.76759500   -2.48222800   -0.84246000
 H                0   -1.64378800   -2.35071900   -0.43393900
 H                0   -0.55331300   -1.59126500   -1.19885700
 O                0    1.17460400   -4.72762100    2.17054300
 H                0    0.83829200   -5.61237300    1.98033900
 O                0    1.71280600   -1.72574600    1.06848900
 H                0    2.49214400   -1.52282500    0.52197700
 O                0   -0.67188100   -5.09277400   -0.06229500
 H                0   -0.95782100   -4.73663000   -0.91542800
 H                0    0.67972800   -4.37213100    2.98736700
 H                0    1.23762800   -0.86741200    1.18108300
 H                0    0.10012900   -5.69771400   -0.28397200
 H                0    2.29826300   -0.36257000   -1.31641600
 H                0   -2.92007500    5.17715700    1.04240600
 Mg               0    0.49371100   -3.37444600    0.65074200
 C                0   -5.89674300   -0.96508500    0.21234900
 C                0   -7.25228400   -0.89772200    0.35435700
 H                0   -5.21921900   -1.17111500    1.03100000
 H                0   -7.72355100   -1.05401100    1.31631000
 N                0   -5.31790700   -0.78797600   -0.99580300
 N                0   -7.45693500   -0.48481800   -2.02757800
 C                0   -8.00196400   -0.64068200   -0.83538600
 C                0   -6.09627000   -0.56840600   -2.17800100
 N                0   -9.37350600   -0.58660900   -0.77102100
 H                0   -9.80060400   -0.35438600    0.11209900
 H                0   -9.81872400   -0.21154100   -1.59638100
 O                0   -5.50502000   -0.45574600   -3.24574900
 H                0    0.28351500   -0.48136600    3.53008000
 H                0    3.64911100   -5.27530000    1.40865600

