%nprocshared=8
%mem=30GB
# freq b3lyp/6-31g(d,p) empiricaldispersion=gd3

Practice Constrained opt

-1 1
 C               -1    1.50404500   -6.32059300   -0.06573300
 C                0    0.33204800   -5.68475800   -0.78840000
 O                0    0.37388200   -4.40856400   -0.92825100
 O                0   -0.63807500   -6.41364200   -1.09828600
 H                0    2.43870600   -5.77242700   -0.20839900
 H                0    1.62849500   -7.36910700   -0.34635000
 C               -1   -1.73797500   -1.56819900    4.12962300
 C                0   -1.75020400   -2.72702300    3.14947100
 O                0   -1.60637400   -3.88148900    3.62807800
 O                0   -1.91514900   -2.44990700    1.90802300
 H                0   -2.76876200   -1.24228500    4.31499700
 H                0   -1.19814100   -0.71191200    3.71763700
 C               -1    4.41306900    4.52474200    3.36360900
 C                0    5.16316900    4.62012300    2.03639300
 C                0    5.12834200    3.33473700    1.17867900
 O                0    4.56095300    2.31924900    1.67103900
 O                0    5.67410800    3.42323200    0.03623100
 H                0    3.34231800    4.37102100    3.21281600
 H                0    4.77941900    5.44404700    1.42208500
 H                0    6.22184100    4.85685600    2.20686100
 C               -1    6.68769800   -2.58028500   -0.54779900
 C                0    5.26460200   -2.64247800   -1.00669900
 C                0    4.37084600   -1.63486600   -1.25873600
 N                0    4.56351900   -3.82570100   -1.24431500
 C                0    3.29884500   -3.53677800   -1.61169300
 N                0    3.17570700   -2.21702600   -1.62987800
 H                0    6.84318400   -3.17802900    0.35736900
 H                0    6.90764300   -1.53255600   -0.32006500
 H                0    4.92283400   -4.76066200   -1.12408700
 H                0    4.53486200   -0.56428400   -1.14503500
 H                0    2.48767600   -4.22657800   -1.79034000
 C                0   -2.38585500    1.03964400    1.75501400
 O                0   -1.16568200    1.42509900    2.37440900
 C                0   -2.08962600    0.43970700    0.38604500
 O                0   -3.25325800   -0.08673100   -0.31006400
 C                0   -1.49458400    1.46086700   -0.57728300
 O                0   -0.64089300    0.82182000   -1.54501200
 C                0   -2.72063300    2.01329100   -1.30185100
 C                0   -3.76023400    0.87571200   -1.21863200
 H                0   -3.93034800    0.39728200   -2.18539000
 H                0   -3.09590900    2.90013900   -0.78643000
 H                0   -0.93563000    2.23455800   -0.06308000
 H                0   -1.44581700   -0.41737700    0.55837700
 H                0   -3.02690100    1.92908600    1.67341900
 H                0   -2.49648700    2.29135500   -2.32940200
 H                0   -2.91528100    0.28743900    2.35494500
 P                0    0.79095900    0.21881200   -1.03966400
 C                0    2.62348200    2.18283600   -0.94396000
 O                0    1.97632300    1.10272400   -1.67029200
 C                0    1.96206200    3.50865100   -1.29914700
 O                0    0.61865700    3.55683000   -0.79221200
 C                0    2.67820200    4.71777200   -0.67773600
 O                0    2.33370600    5.93444800   -1.35514900
 C                0    2.01639000    4.76508200    0.69754300
 C                0    0.56519800    4.40243400    0.37435700
 O                0    0.87450500   -1.12038000   -1.79253200
 O                0    5.68981600    0.71792600   -0.24773800
 O                0    0.84231100    0.18353300    0.47731700
 H                0    2.47444100    4.00776600    1.33586900
 H                0    3.76328700    4.57700000   -0.63251600
 H                0    2.59177300    1.98438400    0.12910600
 H                0    0.07225100    3.85359500    1.18591600
 H                0    2.12602200    5.74406300    1.16883400
 H                0    1.90422400    3.59198600   -2.39249900
 H                0    3.67235200    2.16783200   -1.24436100
 H                0    4.54328400    5.43537400    3.96234300
 H                0    4.77343300    3.66912000    3.94073400
 H                0    2.72419600    5.88794800   -2.23714600
 H                0    5.18612600    0.93718900    0.57063500
 H                0   -0.42285100    0.98668300    1.91643700
 H                0    5.90447300    1.65348500   -0.47209500
 O                0   -1.54300000   -2.19434900   -1.22657100
 H                0   -2.17171700   -1.46178000   -1.09890000
 H                0   -0.71205400   -1.81980300   -1.61899900
 O                0   -0.87384300   -5.18173000    1.62592200
 H                0   -1.48317100   -5.87129100    1.33512100
 O                0    0.73766100   -2.50079700    0.97521200
 H                0    1.34539400   -2.82042700    0.29403700
 O                0   -2.54910400   -4.66451300   -0.65122200
 H                0   -2.65845900   -4.07490700   -1.41183500
 H                0   -1.22697200   -4.78922400    2.51076200
 H                0    0.78988900   -1.51263500    0.93924400
 H                0   -1.94658800   -5.39611000   -0.98435600
 H                0    2.21873300   -1.70972800   -1.79100800
 H                0   -0.02794000    5.29355400    0.13187000
 Mg               0   -1.03803000   -3.48103100    0.37874200
 C                0   -5.62119500    0.94573200    0.43469700
 C                0   -6.83867600    1.40655400    0.84062100
 H                0   -5.02894100    0.24288100    1.00656100
 H                0   -7.27693100    1.08104200    1.77533400
 N                0   -5.08834300    1.34734400   -0.74255900
 N                0   -7.01179700    2.69376500   -1.20976500
 C                0   -7.50266200    2.31375300   -0.04428000
 C                0   -5.79958700    2.21586600   -1.63329000
 N                0   -8.73925800    2.80123900    0.29403700
 H                0   -9.00258200    2.81504300    1.26671800
 H                0   -9.06497500    3.56955500   -0.27455700
 O                0   -5.27668000    2.48746500   -2.70835500
 H                0    1.24965100   -6.26620100    0.99711300
 H                0   -1.29933200   -1.88194100    5.07748500
 H                0    7.38296600   -2.93510300   -1.31759600

