%chk=DTrunc_PC_opt4.chk
%nprocshared=8
%mem=3GB
# opt b3lyp/6-31g(d,p) empiricaldispersion=gd3

M1 TS1 opt4

-1 1
 C               -1    4.94673200   -3.29692700    1.35325700
 C                0    5.31354500   -3.60820800   -0.10515200
 C                0    4.05692900   -3.82383500   -0.96342300
 O                0    3.21344500   -2.84550300   -0.94850100
 O                0    3.92944400   -4.88592700   -1.59055800
 H                0    5.84377300   -3.22215300    1.97965700
 H                0    5.88330300   -2.76390300   -0.52455600
 H                0    5.94099900   -4.50101500   -0.17883700
 C               -1    1.34501800   -0.46657800    4.28114300
 C                0    0.33291800   -1.62441800    4.32177200
 C                0    0.49220300   -2.58065200    3.13540400
 O                0    0.65170500   -3.79911100    3.35325300
 O                0    0.45596100   -2.03375000    1.96611500
 H                0    1.18583000    0.15078900    3.39415000
 H                0    2.37317100   -0.84338200    4.25021800
 H                0    0.42994200   -2.20813500    5.24126200
 H                0   -0.67856400   -1.20310300    4.28342100
 C               -1    3.98817400    6.77163200    1.52484200
 C                0    3.43040100    5.56786300    0.80863200
 O                0    2.98646500    4.65362700    1.66904800
 O                0    3.38833300    5.46006500   -0.40963000
 H                0    4.37907100    7.48745600    0.80231200
 H                0    4.77696500    6.46017500    2.21569800
 C               -1    8.48642600    1.75150700   -2.40251700
 C                0    7.52211800    1.82609700   -1.20220500
 C                0    6.16366500    1.24344800   -1.44556300
 C                0    4.90550800    1.78969300   -1.39278000
 N                0    5.94949400   -0.09569700   -1.74754400
 C                0    4.61269600   -0.31148700   -1.86173700
 N                0    3.95524400    0.81808700   -1.65059000
 H                0    8.07399000    2.28123900   -3.26631100
 H                0    7.98373900    1.32782500   -0.33817900
 H                0    7.38109200    2.87159300   -0.90949900
 H                0    6.65483900   -0.81324900   -1.82086700
 H                0    4.62132800    2.80789300   -1.16733100
 H                0    4.15677400   -1.28563000   -2.00795500
 C                0   -2.61110100   -0.98607900    2.00370900
 O                0   -1.56219900   -0.05940400    2.19093800
 C                0   -2.50185900   -1.70593500    0.66334000
 O                0   -3.70239500   -2.50262200    0.43963900
 C                0   -2.35594200   -0.78618600   -0.56839700
 O                0   -1.04175000   -0.43252400   -0.88247600
 C                0   -3.08149200   -1.60841900   -1.65014400
 C                0   -4.19306000   -2.29710800   -0.86555900
 H                0   -4.50962800   -3.25016700   -1.29509700
 H                0   -3.44888100   -1.02027200   -2.48925100
 H                0   -2.90031300    0.14790600   -0.39594300
 H                0   -1.64330600   -2.38098200    0.70986700
 H                0   -3.54784100   -0.41414400    2.03524500
 H                0   -2.39089200   -2.36622900   -2.03457400
 H                0   -2.65625300   -1.73109700    2.81553800
 P                0    0.91056100    1.85575300   -0.32276900
 C                0   -1.44883800    2.67127500    0.39757300
 O                0   -0.47471100    2.56488400   -0.67075300
 C                0   -2.71182100    3.29157200   -0.17094300
 O                0   -3.29500400    2.43652600   -1.15438000
 C                0   -3.78461900    3.51420800    0.93051600
 O                0   -4.47864000    4.75434200    0.76746400
 C                0   -4.78355600    2.39502200    0.64437000
 C                0   -4.68870000    2.27937400   -0.87577200
 O                0    1.33779500    1.14299900   -1.64852800
 O                0    1.99164500    3.09645200   -0.19082600
 O                0    0.97439200    1.17172800    0.99984700
 H                0   -4.44546900    1.46768900    1.11362200
 H                0   -3.35338300    3.44323700    1.93955800
 H                0   -1.62763800    1.68508400    0.83309800
 H                0   -5.00416600    1.31307400   -1.27328300
 H                0   -5.78129500    2.63852100    1.01580700
 H                0   -2.45762000    4.25812400   -0.63671600
 H                0   -1.05096100    3.33051300    1.18087400
 H                0    8.66942000    0.71456500   -2.70519500
 H                0    9.45227100    2.19930200   -2.14932100
 H                0   -3.81935200    5.46038400    0.76043800
 H                0    4.39664600   -2.35672600    1.42183200
 H                0    4.29867400   -4.07976700    1.75530500
 H                0    2.59430400    3.90721400    1.14409300
 H                0   -0.71855100   -0.51271200    1.97131100
 H                0    1.24200600    0.17047900    5.16687000
 H                0    2.07349400    3.72509700   -0.92621600
 O                0    0.13855800   -2.80645600   -1.02726600
 H                0   -0.60598500   -3.27705000   -0.63115600
 H                0   -0.52891600   -1.27981800   -1.04874000
 O                0    1.88144600   -4.48133600    1.10525600
 H                0    1.54506300   -5.06456900    0.37377700
 O                0    2.59763100   -0.88707900    0.84630800
 H                0    3.20560200   -0.57455600    0.16476200
 O                0    1.20276700   -5.38259900   -1.32844400
 H                0    0.81991400   -4.49154600   -1.49834100
 H                0    1.30946500   -4.49973300    1.91698100
 H                0    1.99067300   -0.13515200    1.06491700
 H                0    2.13819500   -5.27348600   -1.61328100
 H                0    2.35516400    0.99195200   -1.69312500
 H                0   -5.27616300    3.07261500   -1.36245800
 Mg               0    1.58540300   -2.61363200    0.28938400
 C                0   -5.93162300   -1.00100400    0.37245800
 C                0   -7.04604900   -0.21313700    0.41808800
 H                0   -5.38483700   -1.31375800    1.25187900
 H                0   -7.44620300    0.14123100    1.35936200
 N                0   -5.43662300   -1.44566900   -0.80190800
 N                0   -7.20065700   -0.35055700   -1.99464100
 C                0   -7.62649100    0.12872300   -0.84156800
 C                0   -6.15058400   -1.23727200   -2.02806100
 N                0   -8.70824700    0.97883700   -0.88151700
 H                0   -8.80607300    1.64360900   -0.12909700
 H                0   -8.92298900    1.32807600   -1.80525200
 O                0   -5.77627400   -1.82764200   -3.03281400
 H                0    3.19933000    7.23660700    2.12384300

