%nprocshared=8
%mem=30GB
# m062x/6-311+g(2df,2p) integral=ultrafine

Title Card Required

-1 1
 C               -1    6.96362500   -3.01006600   -0.33235000
 C                0    7.31859500   -1.80904400    0.57099700
 C                0    6.73117400   -0.56640200   -0.09254300
 O                0    5.54868100   -0.23171700    0.25513100
 O                0    7.39856700   -0.05296600   -1.02582600
 H                0    7.46798400   -3.92465900    0.00343100
 H                0    6.90165400   -1.93549600    1.57606600
 H                0    8.40480700   -1.70241200    0.64431800
 C               -1    3.25164500   -2.76837000   -4.29688000
 C                0    2.04609600   -1.79939800   -4.21944500
 C                0    2.03033000   -1.16495000   -2.83246200
 O                0    1.52034200   -1.84336600   -1.89366700
 O                0    2.67267400   -0.07597000   -2.67160700
 H                0    3.15358500   -3.55809600   -3.54468100
 H                0    4.18857000   -2.22294000   -4.13429600
 H                0    2.13936400   -1.02206200   -4.98251700
 H                0    1.11215200   -2.34796900   -4.37071600
 C               -1   -2.79586900   -4.38482300   -5.82950200
 C                0   -3.82932500   -4.13567400   -4.72417200
 C                0   -3.34479900   -3.05025000   -3.79623500
 C                0   -3.87501100   -1.75744300   -3.82867700
 C                0   -2.25586900   -3.30057800   -2.95030700
 C                0   -3.34058600   -0.74271100   -3.03669900
 C                0   -1.70732100   -2.30845400   -2.15053900
 C                0   -2.25963100   -1.02292500   -2.19849300
 O                0   -1.76826100   -0.01629700   -1.42434500
 H                0   -2.62317100   -3.46996000   -6.40615100
 H                0   -4.79138800   -3.85423600   -5.16964300
 H                0   -4.00004600   -5.06777300   -4.16928600
 H                0   -4.71862700   -1.53918200   -4.48015300
 H                0   -1.82579700   -4.29810800   -2.92025600
 H                0   -3.76529300    0.25492000   -3.02685800
 H                0   -0.86987000   -2.50920400   -1.49352500
 H                0   -1.14788000   -0.40285700   -0.72534300
 C               -1   -5.19041100    3.45165000   -2.48460300
 C                0   -3.73617200    3.92713000   -2.32816800
 C                0   -3.22107900    4.03844000   -0.89634600
 N                0   -3.52672100    3.02293800   -0.06808200
 O                0   -2.51842700    5.00252900   -0.54190500
 H                0   -5.33628000    2.43738900   -2.10379100
 H                0   -3.04910400    3.24452800   -2.84634900
 H                0   -3.59750600    4.91714200   -2.77171300
 H                0   -4.03686800    2.17997800   -0.34653700
 H                0   -3.22497500    3.05245300    0.89694300
 C               -1   -3.35307500   -6.22114600   -1.10892100
 C                0   -2.15300700   -5.69924900   -0.31246700
 C                0   -2.35493800   -4.38131000    0.46222600
 O                0   -1.32584100   -4.05986800    1.16319300
 O                0   -3.41612900   -3.73630100    0.36123800
 H                0   -4.18172800   -6.48284000   -0.44296000
 H                0   -1.80329200   -6.44641600    0.41048900
 H                0   -1.29734300   -5.52252400   -0.97600900
 C               -1   -6.40771600   -2.23570900    0.64116000
 C                0   -5.71191800   -1.67216400   -0.60492500
 C                0   -4.79651100   -0.52950100   -0.21181600
 N                0   -3.76705600   -0.87335200    0.58007100
 O                0   -5.05170600    0.64534500   -0.54027400
 H                0   -5.67754500   -2.72599400    1.28925600
 H                0   -5.11939100   -2.45986200   -1.07999600
 H                0   -6.43163900   -1.27768000   -1.32572400
 H                0   -3.48126000   -1.85939500    0.63738700
 H                0   -3.07471700   -0.16268100    0.76338100
 C               -1    3.43343800   -6.07115800    5.17133400
 C                0    4.28701300   -5.55705200    4.00177600
 C                0    3.73828900   -4.30556400    3.38635600
 C                0    2.55573300   -3.63322000    3.56215800
 N                0    4.42504700   -3.55143100    2.44372700
 C                0    3.65866900   -2.48314300    2.09293300
 N                0    2.51906500   -2.51134000    2.75907700
 H                0    2.41845500   -6.30787000    4.83775300
 H                0    5.31177200   -5.37101600    4.35348800
 H                0    4.36908700   -6.34421600    3.23848700
 H                0    5.32838600   -3.75890900    2.04471700
 H                0    1.73184500   -3.88898100    4.21108900
 H                0    3.96970000   -1.73222600    1.38109800
 C                0   -0.16348700    2.88152000   -2.08707800
 O                0   -0.99290800    2.07202900   -2.88988200
 C                0    0.53816000    2.15675400   -0.92429400
 O                0    1.65394200    3.00193100   -0.53617500
 C                0   -0.23910100    2.00737800    0.39541200
 O                0    0.43947800    1.09772300    1.27830200
 C                0   -0.09920300    3.39699000    1.01836500
 C                0    1.34856600    3.74415800    0.65622000
 H                0    2.04309400    3.42119600    1.43024600
 H                0   -0.84221100    4.07454400    0.59586100
 H                0   -1.27906100    1.72624900    0.23662300
 H                0    0.94630700    1.20594600   -1.27368100
 H                0   -0.70762300    3.75428800   -1.69727100
 H                0   -0.24141800    3.34518500    2.09808400
 H                0    0.64512500    3.26633200   -2.72043400
 P                0   -0.32852300   -0.34993000    1.80005700
 C                0   -2.50020500    0.11377100    3.42288900
 O                0   -1.56951100    0.50892500    2.41683300
 C                0   -3.34731700    1.33741100    3.75531400
 O                0   -3.87503900    1.91502000    2.55906300
 C                0   -4.56253800    0.94198200    4.61906400
 O                0   -5.00111400    2.00349100    5.46772100
 C                0   -5.64389500    0.73275100    3.55673900
 C                0   -5.31368900    1.83998300    2.55731700
 O                0    0.76475600   -0.62502500    2.90556900
 O                0   -1.29949000   -2.06408400    2.54064200
 O                0   -0.44563800   -1.04442000    0.46046200
 H                0   -5.52559700   -0.24813400    3.08720300
 H                0   -4.36283100    0.03220900    5.20595300
 H                0   -3.12434400   -0.70371400    3.06270600
 H                0   -5.63159500    1.62574200    1.53574500
 H                0   -6.64546600    0.81097400    3.98613100
 H                0   -2.72442700    2.09125000    4.26038600
 H                0   -1.96868900   -0.22393200    4.32073800
 H                0    3.36126300   -5.31704100    5.96091400
 H                0    3.86998100   -6.97823400    5.59879700
 H                0   -3.08309800   -7.10890100   -1.69165700
 H                0   -3.72048300   -5.44722400   -1.78756100
 H                0   -3.11779800   -5.17191800   -6.52323600
 H                0   -1.83522000   -4.68580600   -5.39996500
 H                0   -5.88141300    4.11284100   -1.94957400
 H                0   -6.91308500   -1.44367400    1.20644300
 H                0   -7.16021800   -2.98181000    0.36283900
 H                0   -4.23884300    2.30834300    5.97667700
 H                0   -5.47349800    3.45625800   -3.54272200
 H                0    5.88661500   -3.18286000   -0.33966200
 H                0    7.28886000   -2.80549200   -1.35697500
 H                0   -1.34863000   -2.97660600    1.81530800
 H                0   -1.35363300    1.34820100   -2.33641200
 H                0    3.30933000   -3.24910500   -5.27861300
 H                0   -0.85511900   -2.36323700    3.34306600
 O                0    4.08022700    2.06902600   -0.96034800
 H                0    3.19609600    2.50687900   -0.87012100
 H                0    4.62015400    2.48981500   -0.27613900
 O                0    4.02702500   -2.23277500   -1.11842700
 H                0    4.46422800   -2.43846400   -1.95544500
 O                0    2.46414400   -0.34045500    0.22000100
 H                0    1.91491500    0.34124200    0.66511900
 O                0    5.43500600   -0.12271700   -2.65778100
 H                0    5.21393200    0.58566500   -3.27471700
 H                0    3.06652000   -2.40452100   -1.27675500
 H                0    1.81926300   -0.87932600   -0.30169700
 H                0    6.30023200    0.09564400   -2.18636000
 H                0    1.42630000   -1.41501200    2.75606500
 H                0   -5.73092400    2.80092400    2.88671900
 Mg               0    4.02194500    0.00637900   -1.07695100
 C                0    0.73741100    6.03789100   -0.07221500
 C                0    1.09911400    7.31282800   -0.38240100
 H                0   -0.28563000    5.69558900   -0.19120900
 H                0    0.37111200    8.01912900   -0.76062600
 N                0    1.65684200    5.15212600    0.40187800
 N                0    3.39441100    6.79713800    0.21107200
 C                0    2.47429500    7.65594300   -0.18789800
 C                0    3.05658100    5.49227300    0.44298900
 N                0    2.89524400    8.93031900   -0.45686900
 H                0    2.21963800    9.67691100   -0.47713500
 H                0    3.82876600    9.15622300   -0.14682100
 O                0    3.87245100    4.61030500    0.69899800

 1 2 1.0 6 1.0 121 1.0 122 1.0
 2 3 1.0 7 1.0 8 1.0
 3 4 2.0 5 2.0
 4 141 1.0
 5
 6
 7
 8
 9 10 1.0 14 1.0 15 1.0 125 1.0
 10 11 1.0 16 1.0 17 1.0
 11 12 2.0 13 2.0
 12
 13 141 1.0
 14
 15
 16
 17
 18 19 1.0 27 1.0 114 1.0 115 1.0
 19 20 1.0 28 1.0 29 1.0
 20 21 1.5 22 1.5
 21 23 1.5 30 1.0
 22 24 1.5 31 1.0
 23 25 1.5 32 1.0
 24 25 1.5 33 1.0
 25 26 1.0
 26 34 1.0
 27
 28
 29
 30
 31
 32
 33
 34
 35 36 1.0 40 1.0 116 1.0 120 1.0
 36 37 1.0 41 1.0 42 1.0
 37 38 1.5 39 2.0
 38 43 1.0 44 1.0
 39
 40
 41
 42
 43
 44
 45 46 1.0 50 1.0 112 1.0 113 1.0
 46 47 1.0 51 1.0 52 1.0
 47 48 2.0 49 2.0
 48
 49
 50
 51
 52
 53 54 1.0 58 1.0 117 1.0 118 1.0
 54 55 1.0 59 1.0 60 1.0
 55 56 1.5 57 2.0
 56 61 1.0 62 1.0
 57
 58
 59
 60
 61
 62
 63 64 1.0 70 1.0 110 1.0 111 1.0
 64 65 1.0 71 1.0 72 1.0
 65 66 2.0 67 1.0
 66 69 1.5 74 1.0
 67 68 1.5 73 1.0
 68 69 2.0 75 1.0
 69
 70
 71
 72
 73
 74
 75
 76 77 1.0 78 1.0 88 1.0 90 1.0
 77 124 1.0
 78 79 1.0 80 1.0 87 1.0
 79 83 1.0
 80 81 1.0 82 1.0 86 1.0
 81 91 1.0
 82 83 1.0 85 1.0 89 1.0
 83 84 1.0 146 1.0
 84
 85
 86
 87
 88
 89
 90
 91 93 1.0 100 1.5 102 2.0
 92 93 1.0 94 1.0 105 1.0 109 1.0
 93
 94 95 1.0 96 1.0 108 1.0
 95 99 1.0
 96 97 1.0 98 1.0 104 1.0
 97 119 1.0
 98 99 1.0 103 1.0 107 1.0
 99 106 1.0 140 1.0
 100
 101 126 1.0
 102
 103
 104
 105
 106
 107
 108
 109
 110
 111
 112
 113
 114
 115
 116
 117
 118
 119
 120
 121
 122
 123
 124
 125
 126
 127 128 1.0 129 1.0 141 1.0
 128
 129
 130 131 1.0 136 1.0
 131
 132 133 1.0 137 1.0 141 1.0
 133
 134 135 1.0 138 1.0 141 1.0
 135
 136
 137
 138
 139
 140
 141
 142 143 2.0 144 1.0 146 1.5
 143 145 1.0 148 1.5
 144
 145
 146 149 1.0
 147 148 2.0 149 1.5
 148 150 1.5
 149 153 2.0
 150 151 1.0 152 1.0
 151
 152
 153

