%nprocshared=8
%mem=1GB
# opt=(calcfc,ts,noeigen,maxstep=10) b3lyp/6-31g(d,p) geom=connectivity
empiricaldispersion=gd3

IC-185

-1 1
 C               -1    7.26584400    0.35488000    0.54691200
 C                0    5.88592700    0.97330800    0.28403600
 C                0    4.79310600   -0.08973900    0.25817600
 N                0    3.66950500    0.16345500    0.93049100
 O                0    4.98067700   -1.14958700   -0.37644200
 H                0    7.31321900   -0.07782600    1.55131400
 H                0    5.65278300    1.74379100    1.02628800
 H                0    5.87227800    1.46099200   -0.69853100
 H                0    3.44016800    1.08390700    1.28530700
 H                0    2.92202000   -0.53884000    0.93791300
 C               -1    4.65809800   -4.78823000    0.96921800
 C                0    4.26584100   -5.61827300   -0.25934500
 C                0    3.05265400   -4.98785700   -0.93083200
 O                0    2.11997200   -4.62138200   -0.15427500
 O                0    3.06116400   -4.80136700   -2.18798600
 H                0    4.90094400   -3.75935900    0.68012700
 H                0    5.07883900   -5.69138700   -0.98714500
 H                0    3.99824600   -6.63836800    0.04615300
 C               -1    3.75389100   -1.84492200    3.78695300
 C                0    2.28477800   -1.43132000    3.57154600
 C                0    1.57233400   -2.28373200    2.51744700
 O                0    1.69503500   -1.90472900    1.28200400
 O                0    0.91689300   -3.27445400    2.89013600
 H                0    4.32642500   -1.73729700    2.86113400
 H                0    3.81629100   -2.88989100    4.10706300
 H                0    1.72901200   -1.54155300    4.50662400
 H                0    2.23371200   -0.38182500    3.26502000
 C               -1    4.97990000    5.89544500    1.89383900
 C                0    4.37925900    4.53707400    2.23457700
 C                0    3.16558200    4.22591500    1.37645100
 O                0    2.81763300    4.92579900    0.43973300
 O                0    2.54462800    3.11505300    1.76718400
 H                0    5.26493800    5.93699400    0.83936300
 H                0    5.10895200    3.72935300    2.09160500
 H                0    4.07348000    4.47462400    3.28488600
 C               -1    5.20047600    0.47525200   -4.80131000
 C                0    4.63876100    0.07820800   -3.42406700
 C                0    3.77822500    1.12646700   -2.78867500
 C                0    2.58733600    1.05483800   -2.10804200
 N                0    4.13082800    2.47096000   -2.73032600
 C                0    3.16136500    3.13925800   -2.04174600
 N                0    2.21691000    2.30619500   -1.65554300
 H                0    5.86274600    1.34761500   -4.73630500
 H                0    4.03184300   -0.82780100   -3.50109000
 H                0    5.45718200   -0.18548800   -2.74143300
 H                0    4.95070400    2.88348600   -3.14630000
 H                0    2.01822100    0.16935500   -1.87423800
 H                0    3.19781500    4.19276600   -1.80893900
 H                0    1.01703300    2.69676400   -0.51178500
 Mg               0    1.02017000   -2.87640800   -0.43960600
 C                0   -4.54043700   -2.16936200    0.49721100
 C                0   -3.14661300   -1.85246500   -0.03584000
 C                0   -2.69811900   -0.62974500    0.79120000
 O                0   -1.30749300   -0.50706400    0.87634500
 C                0   -3.37177600   -0.91819700    2.14205900
 O                0   -4.56388700   -1.69311700    1.84375000
 C                0   -3.83554300    0.31260000    2.91285500
 O                0   -4.91182600    0.95527700    2.22816600
 N                0   -5.64768000   -1.55085900   -0.27338900
 C                0   -6.92218600   -2.22796200   -0.26652300
 O                0   -7.02571400   -3.30733100    0.29990600
 N                0   -7.96895100   -1.60739600   -0.90857500
 C                0   -7.78776500   -0.45445400   -1.52079200
 N                0   -8.87434000    0.07913500   -2.17497500
 C                0   -6.53635000    0.23209300   -1.56471900
 C                0   -5.49982400   -0.35997800   -0.90960700
 H                0   -6.39036200    1.17286900   -2.07926200
 H                0   -4.52776900    0.11350900   -0.88438000
 H                0   -8.88499100    1.07572400   -2.32923400
 H                0   -4.78143700   -3.23080100    0.51014200
 H                0   -9.75814800   -0.34121300   -1.92423700
 H                0   -3.10541000   -1.69835700   -1.11557200
 H                0   -3.12199900    0.29636700    0.38400500
 H                0   -2.68297300   -1.52064100    2.74963700
 H                0   -4.15068400    0.01666300    3.92658300
 H                0   -2.47716200   -2.68367200    0.20508700
 H                0   -3.00683100    1.02033800    2.97841900
 C                0   -1.49980800    2.33089600   -1.73948000
 O                0   -3.86717500    2.33020600   -1.19693100
 P                0   -0.49019500    1.55977900    0.68903200
 O                0   -1.33578200    2.02861600    1.82210900
 O                0    0.42008900    2.90339100    0.27201100
 O                0   -2.85570400    5.47029100   -0.77544000
 O                0   -1.16578100    1.30835400   -0.79424200
 C                0   -2.73094000    3.17184300   -1.41866500
 C                0   -2.64473800    4.15576800   -0.22321700
 C                0   -3.79259200    3.70411000    0.68816000
 C                0   -4.74069400    3.01714100   -0.28599000
 H                0   -1.69636500    1.77724400   -2.66314200
 H                0   -0.65632000    3.00618100   -1.91631900
 H                0   -2.90070600    3.79912700   -2.31103800
 H                0   -1.67656200    4.10971700    0.27995400
 H                0   -3.42240200    2.97393100    1.40791100
 H                0   -4.24644800    4.54669900    1.21954500
 H                0   -5.35570600    3.74757400   -0.83815900
 H                0   -5.37842700    2.27299400    0.18943900
 O                0    2.72786600   -2.12442700   -1.57226800
 H                0    3.02908700   -2.94616300   -2.01525000
 H                0    3.51494800   -1.81391300   -1.05689100
 O                0   -0.23591500   -1.44301800   -1.07077700
 H                0   -0.01094100   -0.64697900   -1.56291500
 H                0   -0.79483200   -1.02438300   -0.16274900
 O                0   -0.42324400   -3.89770300    0.72414300
 H                0   -0.23865100   -4.82122600    0.50448600
 H                0   -0.00418600   -3.75643700    1.62957300
 O                0    0.51251800   -3.93793500   -2.26490800
 H                0    0.28479400   -3.28948500   -2.94200500
 H                0    1.39598100   -4.33821000   -2.48546300
 O                0    0.84460400    0.66592500    0.87734700
 H                0    1.68195200    3.01691100    1.23984500
 H                0    0.67381700   -0.26696800    1.11401600
 H                0   -5.50399700    0.22659900    1.98265800
 H                0   -2.67615600    6.09589900   -0.06220400
 H                0    4.39565600    0.71965500   -5.50191300
 H                0    5.78902300   -0.34311900   -5.22672500
 H                0    5.86473700    6.10006600    2.50512500
 H                0    4.25068900    6.69289500    2.06007900
 H                0    8.05671200    1.10644600    0.46037100
 H                0    7.45275000   -0.44681700   -0.17115900
 H                0    3.82325700   -4.74366400    1.67149900
 H                0    5.53050500   -5.21508200    1.47697700
 H                0    4.22126700   -1.22005900    4.55499700

 1 2 1.0 6 1.0 118 1.0 119 1.0
 2 3 1.0 7 1.0 8 1.0
 3 4 1.5 5 2.0
 4 9 1.0 10 1.0
 5
 6
 7
 8
 9
 10
 11 12 1.0 16 1.0 120 1.0 121 1.0
 12 13 1.0 17 1.0 18 1.0
 13 14 2.0 15 2.0
 14 50 1.0
 15
 16
 17
 18
 19 20 1.0 24 1.0 25 1.0 122 1.0
 20 21 1.0 26 1.0 27 1.0
 21 22 1.5 23 2.0
 22 50 1.0
 23
 24
 25
 26
 27
 28 29 1.0 33 1.0 116 1.0 117 1.0
 29 30 1.0 34 1.0 35 1.0
 30 31 2.0 32 1.5
 31
 32 110 1.0
 33
 34
 35
 36 37 1.0 43 1.0 114 1.0 115 1.0
 37 38 1.0 44 1.0 45 1.0
 38 39 2.0 40 1.0
 39 42 1.5 47 1.0
 40 41 1.5 46 1.0
 41 42 2.0 48 1.0
 42
 43
 44
 45
 46
 47
 48
 49 82 1.0
 50 100 1.0 103 1.0
 51 52 1.0 56 1.0 59 1.0 70 1.0
 52 53 1.0 72 1.0 76 1.0
 53 54 1.0 55 1.0 73 1.0
 54
 55 56 1.0 57 1.0 74 1.0
 56
 57 58 1.0 75 1.0 77 1.0
 58 112 1.0
 59 60 1.0 66 1.5
 60 61 2.0 62 1.5
 61
 62 63 2.0
 63 64 1.5 65 1.5
 64 69 1.0 71 1.0
 65 66 2.0 67 1.0
 66 68 1.0
 67
 68
 69
 70
 71
 72
 73
 74
 75
 76
 77
 78 84 1.0 85 1.0 89 1.0 90 1.0
 79 85 1.0 88 1.0
 80 81 2.0 82 1.0 84 1.0 109 1.0
 81
 82
 83 86 1.0 113 1.0
 84
 85 86 1.0 91 1.0
 86 87 1.0 92 1.0
 87 88 1.0 93 1.0 94 1.0
 88 95 1.0 96 1.0
 89
 90
 91
 92
 93
 94
 95
 96
 97 98 1.0 99 1.0
 98
 99
 100 101 1.0
 101
 102
 103 104 1.0 105 1.0
 104
 105
 106 107 1.0 108 1.0
 107
 108
 109 111 1.0
 110
 111
 112
 113
 114
 115
 116
 117
 118
 119
 120
 121
 122

