%nprocshared=8
%mem=30GB
# freq b3lyp/6-31g(d,p) empiricaldispersion=gd3

IC-185

-3 1
 C               -1   -6.49687700   -0.90431900    2.20537600
 C                0   -5.16566300   -1.12643500    1.48005000
 C                0   -4.27280400    0.11022200    1.52797300
 N                0   -2.95178500   -0.11880300    1.60939600
 O                0   -4.74912900    1.26109500    1.52762700
 H                0   -6.34187400   -0.75537600    3.28007700
 H                0   -4.63082500   -1.97802600    1.91170400
 H                0   -5.34327900   -1.39795100    0.43274100
 H                0   -2.54627400   -1.00770500    1.33836700
 H                0   -2.32970800    0.68375400    1.62679600
 C               -1   -4.59784600    4.40185900    3.49701700
 C                0   -4.24308200    5.63273300    2.66878700
 C                0   -2.74277600    5.93909300    2.59922600
 O                0   -1.94769600    4.95942300    2.84478000
 O                0   -2.39171700    7.08122000    2.23609500
 H                0   -4.12370700    3.51327000    3.07707300
 H                0   -4.54992500    5.48193300    1.62372200
 H                0   -4.76084600    6.53501400    3.01629500
 C               -1   -2.39586000    1.10932800    4.81259700
 C                0   -0.99494500    0.70595000    4.31933700
 C                0   -0.37483700    1.82614300    3.49139300
 O                0   -0.92406500    2.04401900    2.34117400
 O                0    0.58040000    2.47972200    3.96181600
 H                0   -3.05145100    1.32883200    3.96707400
 H                0   -2.34447700    2.00594100    5.43985400
 H                0   -0.33059800    0.48302700    5.15855700
 H                0   -1.07007300   -0.19111900    3.69675400
 C               -1   -1.00568900   -5.71290900    6.04015100
 C                0   -1.02246600   -4.17461700    5.97414700
 C                0    0.00669800   -3.61945000    5.01360800
 C                0    1.37245800   -3.66040400    5.33083600
 C                0   -0.35204100   -3.08848600    3.76804600
 C                0    2.34032600   -3.20067700    4.44445700
 C                0    0.60171600   -2.62019700    2.86687700
 C                0    1.96674800   -2.67656500    3.19415700
 O                0    2.94024400   -2.25271800    2.36961000
 H                0   -1.22022200   -6.13959200    5.05469100
 H                0   -2.02272200   -3.83614700    5.67810600
 H                0   -0.84877900   -3.77528100    6.98387500
 H                0    1.68256400   -4.05972700    6.29637400
 H                0   -1.40115500   -3.02702300    3.48736700
 H                0    3.39663600   -3.22746200    4.69545000
 H                0    0.29674000   -2.21785200    1.91136600
 H                0    2.56757100   -1.83911500    1.52451700
 C               -1    6.06546600   -2.87611200    1.36218000
 C                0    5.48633800   -2.71884300   -0.04056700
 C                0    6.54371000   -2.63198500   -1.12877500
 N                0    6.09549800   -2.84542600   -2.39341400
 O                0    7.72850200   -2.34009400   -0.89934100
 H                0    6.65057800   -3.80026200    1.44877800
 H                0    4.79208800   -3.52772300   -0.29160700
 H                0    4.89589600   -1.79451400   -0.08280900
 H                0    5.18619500   -3.29943900   -2.56607200
 H                0    6.80211800   -2.86509700   -3.11411500
 C               -1   -3.18508900   -5.92395900    0.95119300
 C                0   -3.12757700   -4.39770000    0.95486700
 C                0   -2.02036500   -3.86178800    0.07553000
 O                0   -1.57845900   -4.45029000   -0.89834800
 O                0   -1.60266900   -2.64985200    0.46065300
 H                0   -3.25594500   -6.28971100   -0.07541200
 H                0   -4.07132800   -4.00261600    0.55035100
 H                0   -3.00472700   -3.99694600    1.96629800
 C               -1    1.55900000   -5.85263800   -1.32949500
 C                0    1.74115700   -4.35170800   -1.09805000
 C                0    2.61520800   -3.73037900   -2.17248100
 N                0    2.13380600   -2.62093200   -2.74077900
 O                0    3.70002200   -4.25991700   -2.50169700
 H                0    1.01034800   -6.03455900   -2.25991000
 H                0    0.77114000   -3.85793700   -1.05939700
 H                0    2.23886800   -4.15547100   -0.14042000
 H                0    1.34263800   -2.13224000   -2.31245200
 H                0    2.69613500   -2.09299200   -3.39085900
 C               -1   -5.12410200   -6.94924000   -2.55496700
 C                0   -5.98230800   -6.12311700   -1.58649600
 C                0   -5.77712600   -4.58030000   -1.66588400
 O                0   -5.51863900   -4.10673000   -2.81806300
 O                0   -5.92205900   -3.93401600   -0.60127300
 H                0   -4.05943600   -6.83686200   -2.32215800
 H                0   -7.04726800   -6.30875400   -1.79523400
 H                0   -5.81342200   -6.42776500   -0.54855800
 C               -1   -5.14510000    4.45574100   -3.83814200
 C                0   -4.43317100    5.68844900   -3.27821000
 C                0   -3.57637700    5.33707300   -2.04350500
 O                0   -4.14753600    4.60972600   -1.17701100
 O                0   -2.40834200    5.80247800   -2.01737400
 H                0   -5.81057400    4.70138100   -4.67626600
 H                0   -3.79159500    6.16457800   -4.02669800
 H                0   -5.17990200    6.43093000   -2.96277500
 C               -1   -6.42224900    0.86901000   -3.24746100
 C                0   -5.96205400    0.17773500   -1.94558700
 C                0   -4.59211400   -0.41873400   -2.05378500
 C                0   -3.35241200    0.15295000   -1.85672600
 N                0   -4.34500200   -1.72098900   -2.44882000
 C                0   -3.00590000   -1.88844700   -2.46749400
 N                0   -2.36423400   -0.77354200   -2.12494000
 H                0   -6.46968800    0.14915700   -4.07258000
 H                0   -5.94978600    0.90547900   -1.12603300
 H                0   -6.67435900   -0.60789000   -1.66515600
 H                0   -5.00045700   -2.54499300   -2.58049400
 H                0   -3.13071300    1.14989000   -1.49774000
 H                0   -2.53843700   -2.84271700   -2.66363900
 H                0   -0.76854000   -1.02916600   -1.58116700
 Mg               0   -1.08320700    3.90288600    1.33442700
 C                0    4.61866500    3.24188400    0.03996900
 C                0    3.22117500    2.81201600   -0.38053100
 C                0    3.00954900    1.53644100    0.45472100
 O                0    1.66326500    1.18013500    0.62569400
 C                0    3.68779900    1.92297600    1.77677600
 O                0    4.70633200    2.90338600    1.42227500
 C                0    4.39581800    0.77274500    2.48030100
 O                0    5.45175600    0.25115800    1.67857700
 N                0    5.71142100    2.55136000   -0.70208100
 C                0    7.05113400    3.02800500   -0.46567200
 O                0    7.20938700    4.14703300    0.01050400
 N                0    8.08356500    2.16917000   -0.75434300
 C                0    7.84654400    1.02797800   -1.38196300
 N                0    8.89914000    0.17590200   -1.60160000
 C                0    6.54893900    0.65090400   -1.85339800
 C                0    5.51114900    1.42145000   -1.43732900
 H                0    6.37714400   -0.25209200   -2.42233400
 H                0    4.48954800    1.15453000   -1.67141900
 H                0    8.64268200   -0.81452400   -1.55176100
 H                0    4.82686800    4.30640100   -0.05130500
 H                0    9.70407100    0.42264000   -1.03950300
 H                0    3.07516600    2.67369900   -1.45252800
 H                0    3.55033300    0.68475000    0.03563700
 H                0    2.94873200    2.38942600    2.43945800
 H                0    4.77840300    1.12429900    3.45239100
 H                0    2.51564400    3.57430900   -0.03524200
 H                0    3.69504600   -0.04525900    2.65889000
 C                0    0.59606800    1.09619300   -2.61765500
 O                0    1.28019900   -0.45872100   -4.41289000
 P                0    1.03240800   -0.26525500   -0.30155200
 O                0    2.06097500   -1.26804400    0.18886200
 O                0    0.07910100   -1.41717600   -1.20642500
 O                0    0.66124100    1.72416300   -6.26921900
 O                0    1.51615300    0.50300600   -1.70828700
 C                0    1.07697100    0.90572800   -4.05612000
 C                0    0.00785200    1.40254300   -5.03559300
 C                0   -0.90825000    0.16810500   -5.15576300
 C                0    0.01886900   -1.02048100   -4.80618400
 H                0    0.52319200    2.16975600   -2.41098100
 H                0   -0.40427100    0.66529000   -2.50590300
 H                0    2.03170400    1.42033800   -4.20522700
 H                0   -0.52784600    2.27904800   -4.64419000
 H                0   -1.73414900    0.22825300   -4.44251100
 H                0   -1.33106300    0.09387300   -6.16339900
 H                0    0.20961900   -1.68309900   -5.65706300
 H                0   -0.40127000   -1.61347400   -3.98708300
 O                0   -2.80486500    3.10381900    0.42204400
 H                0   -3.31346700    3.73014800   -0.19567400
 H                0   -3.47482300    2.56134400    0.88818200
 O                0   -0.12098600    2.97381000   -0.29468700
 H                0   -0.84495800    2.37394700   -0.53208800
 H                0    0.59630500    2.38707000    0.06189100
 O                0    0.80429400    4.42002500    2.21336200
 H                0    0.46505800    5.20725800    2.66585400
 H                0    0.84568100    3.71408400    2.92840000
 O                0   -1.06065700    5.66319600    0.22759700
 H                0   -1.56758000    5.68391900   -0.63994700
 H                0   -1.42837400    6.37927600    0.78594200
 O                0   -0.37301800    0.12819300    0.44267700
 H                0   -0.91382300   -2.27679800   -0.17552400
 H                0   -0.27154500    0.81015400    1.14562100
 H                0    5.97281500    1.02091500    1.40541800
 H                0   -0.03426900    1.97855500   -6.88898300
 H                0   -4.41927700    3.71418400   -4.19161300
 H                0   -5.72918100    3.98675200   -3.04334800
 H                0   -5.72066900    1.65891900   -3.52588100
 H                0   -7.41496500    1.31964400   -3.12711100
 H                0   -5.37297100   -8.01822800   -2.51650600
 H                0   -5.26883400   -6.58017300   -3.57428300
 H                0   -4.06065400   -6.27573600    1.50598000
 H                0   -2.28667100   -6.36142500    1.40160900
 H                0   -0.01848800   -6.07615100    6.34659700
 H                0   -1.74821300   -6.09783200    6.75126100
 H                0    2.52963900   -6.35319800   -1.39884300
 H                0    0.97783600   -6.29668700   -0.51572700
 H                0    6.71278200   -2.02999300    1.59679500
 H                0    5.24825900   -2.89305300    2.08511300
 H                0   -7.15473100   -1.76684700    2.06123700
 H                0   -6.98676700   -0.00763900    1.81692400
 H                0   -4.24753700    4.50433200    4.53044000
 H                0   -5.68128300    4.23031600    3.51454800
 H                0   -2.84871500    0.30165000    5.39909000

 1 2 1.0 6 1.0 181 1.0 182 1.0
 2 3 1.0 7 1.0 8 1.0
 3 4 1.5 5 2.0
 4 9 1.0 10 1.0
 5
 6
 7
 8
 9
 10
 11 12 1.0 16 1.0 183 1.0 184 1.0
 12 13 1.0 17 1.0 18 1.0
 13 14 2.0 15 2.0
 14 103 1.0
 15
 16
 17
 18
 19 20 1.0 24 1.0 25 1.0 185 1.0
 20 21 1.0 26 1.0 27 1.0
 21 22 1.5 23 2.0
 22 103 1.0
 23
 24
 25
 26
 27
 28 29 1.0 37 1.0 175 1.0 176 1.0
 29 30 1.0 38 1.0 39 1.0
 30 31 1.5 32 1.5
 31 33 1.5 40 1.0
 32 34 1.5 41 1.0
 33 35 1.5 42 1.0
 34 35 1.5 43 1.0
 35 36 1.0
 36 44 1.0
 37
 38
 39
 40
 41
 42
 43
 44
 45 46 1.0 50 1.0 179 1.0 180 1.0
 46 47 1.0 51 1.0 52 1.0
 47 48 1.5 49 2.0
 48 53 1.0 54 1.0
 49
 50
 51
 52
 53
 54
 55 56 1.0 60 1.0 173 1.0 174 1.0
 56 57 1.0 61 1.0 62 1.0
 57 58 2.0 59 1.5
 58
 59 163 1.0
 60
 61
 62
 63 64 1.0 68 1.0 177 1.0 178 1.0
 64 65 1.0 69 1.0 70 1.0
 65 66 1.5 67 2.0
 66 71 1.0 72 1.0
 67
 68
 69
 70
 71
 72
 73 74 1.0 78 1.0 171 1.0 172 1.0
 74 75 1.0 79 1.0 80 1.0
 75 76 2.0 77 2.0
 76
 77
 78
 79
 80
 81 82 1.0 86 1.0 167 1.0 168 1.0
 82 83 1.0 87 1.0 88 1.0
 83 84 2.0 85 2.0
 84
 85
 86
 87
 88
 89 90 1.0 96 1.0 169 1.0 170 1.0
 90 91 1.0 97 1.0 98 1.0
 91 92 2.0 93 1.0
 92 95 1.5 100 1.0
 93 94 1.5
 94 95 1.5 101 1.0
 95
 96
 97
 98
 99
 100
 101
 102 135 1.0
 103 150 1.0 153 1.0 159 1.0
 104 105 1.0 109 1.0 112 1.0 123 1.0
 105 106 1.0 125 1.0 129 1.0
 106 107 1.0 108 1.0 126 1.0
 107
 108 109 1.0 110 1.0 127 1.0
 109
 110 111 1.0 128 1.0 130 1.0
 111 165 1.0
 112 113 1.0 119 1.5
 113 114 2.0 115 1.5
 114
 115 116 1.5
 116 117 1.5 118 1.5
 117 122 1.0 124 1.0
 118 119 2.0 120 1.0
 119 121 1.0
 120
 121
 122
 123
 124
 125
 126
 127
 128
 129
 130
 131 137 1.0 138 1.0 142 1.0 143 1.0
 132 138 1.0 141 1.0
 133 134 2.0 135 1.0 137 1.0 162 1.0
 134
 135
 136 139 1.0 166 1.0
 137
 138 139 1.0 144 1.0
 139 140 1.0 145 1.0
 140 141 1.0 146 1.0 147 1.0
 141 148 1.0 149 1.0
 142
 143
 144
 145
 146
 147
 148
 149
 150 151 1.0 152 1.0
 151
 152
 153 154 1.0 155 1.0
 154
 155
 156 157 1.0 158 1.0
 157
 158
 159 160 1.0 161 1.0
 160
 161
 162 164 1.0
 163
 164
 165
 166
 167
 168
 169
 170
 171
 172
 173
 174
 175
 176
 177
 178
 179
 180
 181
 182
 183
 184
 185







