%nprocshared=8
%mem=30GB
# freq b3lyp/6-31g(d,p) empiricaldispersion=gd3

M1 TS1 opt4

-1 1
 C               -1    4.59216500   -4.80639800    0.17647100
 C                0    3.26287900   -4.81380300   -0.56329200
 O                0    2.72930400   -3.66858200   -0.79517500
 O                0    2.72384300   -5.91909300   -0.80735900
 H                0    5.21401200   -3.95065200   -0.09876800
 H                0    5.13620100   -5.74174500    0.02637900
 C               -1   -0.63030700   -1.62014800    3.81929400
 C                0   -0.07606800   -2.81214600    3.06944100
 O                0    0.59627500   -3.65861500    3.71042900
 O                0   -0.33251000   -2.86010100    1.81570300
 H                0   -0.24930600   -1.59224800    4.84126000
 H                0   -1.72367500   -1.68038000    3.84605300
 C               -1    3.40767700    5.99210100    1.57563700
 C                0    3.18727600    4.73037800    0.75875500
 O                0    2.68396100    3.74233900    1.47849300
 O                0    3.42987200    4.66995400   -0.44235000
 H                0    3.96685800    6.72195900    0.98994100
 H                0    3.93422000    5.75718200    2.50454000
 C               -1    8.19254100    1.05455700   -2.11029900
 C                0    7.60655200    0.75079400   -0.72040400
 C                0    6.25905700    0.10987200   -0.78402500
 C                0    5.00381400    0.56278800   -0.47098200
 N                0    6.05566100   -1.17096400   -1.28884200
 C                0    4.72225300   -1.43753100   -1.25633600
 N                0    4.06329800   -0.40485200   -0.76485300
 H                0    7.52954200    1.72210400   -2.66817800
 H                0    8.30452900    0.11514400   -0.15728000
 H                0    7.50853800    1.67961500   -0.14956900
 H                0    6.77358400   -1.80804700   -1.59764400
 H                0    4.70082000    1.51668500   -0.06605300
 H                0    4.25749100   -2.37449700   -1.53464600
 C                0   -2.83701000    0.25769800    1.74274500
 O                0   -1.92616600    1.17898900    2.32125200
 C                0   -2.17868200   -0.45540800    0.56665500
 O                0   -2.96207800   -1.57670000    0.06141200
 C                0   -1.96310900    0.47854800   -0.63078200
 O                0   -0.72806500    0.21324500   -1.28146400
 C                0   -3.14463500    0.16200300   -1.55938800
 C                0   -3.64214300   -1.22922200   -1.12477300
 H                0   -3.45598300   -1.99362300   -1.88302600
 H                0   -3.94021000    0.89996200   -1.43414900
 H                0   -2.00253400    1.52454300   -0.32345200
 H                0   -1.24693400   -0.89240400    0.91705400
 H                0   -3.74207100    0.79380900    1.41193100
 H                0   -2.83678200    0.17331400   -2.60356100
 H                0   -3.14625200   -0.48801200    2.49021000
 P                0    0.64759900    1.07963500   -0.63976700
 C                0    0.11197300    3.68610900   -0.52197400
 O                0   -0.00369500    2.47061400   -1.26090200
 C                0   -1.19369900    4.46668900   -0.64203700
 O                0   -2.29794700    3.73851600   -0.10831700
 C                0   -1.12940800    5.76982400    0.17362500
 O                0   -2.08882700    6.73400200   -0.26173300
 C                0   -1.56967600    5.28290400    1.55554200
 C                0   -2.62276200    4.21760700    1.21254400
 O                0    1.50329900    0.14280800   -1.64657400
 O                0    2.21592700    1.98502000   -0.27086700
 O                0    0.44707200    0.79089800    0.85490900
 H                0   -0.71843300    4.84411500    2.08516200
 H                0   -0.11676800    6.20211100    0.17737300
 H                0    0.30944400    3.47651400    0.53191300
 H                0   -2.60816900    3.36660000    1.89903400
 H                0   -1.96859100    6.10481100    2.15497600
 H                0   -1.40074600    4.65593300   -1.70527600
 H                0    0.94171100    4.28784900   -0.91273300
 H                0    8.31330700    0.13919300   -2.70046800
 H                0    9.17533100    1.53083000   -2.02868300
 H                0   -2.00314200    6.82002800   -1.21998700
 H                0    2.47072600    2.94429600    0.84486900
 H                0   -1.06493100    1.11268400    1.84894500
 H                0    2.52903100    2.49378200   -1.03510800
 O                0   -0.35270400   -2.46468200   -1.00674300
 H                0   -1.20355100   -2.51266000   -0.53473000
 H                0   -0.29409900   -1.51014700   -1.26661400
 O                0    1.91095600   -4.66455000    1.80310500
 H                0    1.64043000   -5.55638600    1.55147200
 O                0    1.96215800   -1.50610300    0.99040500
 H                0    2.71558300   -1.17713800    0.46487800
 O                0    0.24101800   -5.09330700   -0.55407000
 H                0   -0.09417200   -4.68044200   -1.36283000
 H                0    1.39556500   -4.41067700    2.64854100
 H                0    1.38190100   -0.71749700    1.12509100
 H                0    1.10701400   -5.52748700   -0.81771900
 H                0    2.44562600    0.08326300   -1.34975500
 H                0   -3.62793000    4.65711300    1.18031600
 Mg               0    1.06225300   -3.28397300    0.38562900
 C                0   -5.63085000   -1.44375400    0.35900700
 C                0   -6.98113500   -1.45022000    0.55983600
 H                0   -4.90799000   -1.59853800    1.14960800
 H                0   -7.40118600   -1.61630700    1.54365200
 N                0   -5.11480500   -1.25387000   -0.87438400
 N                0   -7.31025400   -1.09054200   -1.81608300
 C                0   -7.79384200   -1.25417900   -0.59895600
 C                0   -5.95400000   -1.10436600   -2.02487300
 N                0   -9.16372800   -1.27280000   -0.47517800
 H                0   -9.56067600   -1.03545800    0.42081200
 H                0   -9.65987000   -0.93024900   -1.28571700
 O                0   -5.41790900   -0.98517000   -3.12068700
 H                0    2.43433700    6.41228800    1.85141300
 H                0   -0.38109200   -0.69465200    3.29587000
 H                0    4.33366700   -4.70617100    1.23468900

