%nprocshared=8
%mem=30GB
# m062x/6-311+g(2df,2p) scrf=(iefpcm,read) integral=ultrafine 

Title Card Required

-1 1
 C               -1    7.51892800   -1.35717100   -0.40903300
 C                0    7.47265000   -0.07949300    0.45898500
 C                0    6.52595500    0.91788800   -0.21518000
 O                0    5.31834700    0.96030200    0.20089400
 O                0    6.98654000    1.53078500   -1.20783600
 H                0    8.30408200   -2.04321000   -0.06847300
 H                0    7.13508900   -0.29793200    1.47888700
 H                0    8.47096500    0.36507100    0.51353800
 C               -1    3.85834800   -2.22520700   -4.33357800
 C                0    2.39850800   -1.72627200   -4.21332000
 C                0    2.23769100   -1.16833100   -2.80349800
 O                0    2.09380700   -2.01479900   -1.87270600
 O                0    2.43929100    0.07582400   -2.63677000
 H                0    4.04660100   -3.00337600   -3.58640100
 H                0    4.55664400   -1.39773600   -4.16663900
 H                0    2.19798100   -0.94799400   -4.95469200
 H                0    1.69985300   -2.55577900   -4.35744700
 C               -1   -1.69320600   -5.21661900   -5.66240800
 C                0   -2.66247000   -5.20704200   -4.47605400
 C                0   -2.33717200   -4.05069100   -3.56702000
 C                0   -3.06884600   -2.86097300   -3.60019400
 C                0   -1.19110800   -4.10149700   -2.76246600
 C                0   -2.67771100   -1.75692400   -2.84713600
 C                0   -0.79494300   -3.02296300   -1.98498000
 C                0   -1.54081800   -1.83881200   -2.03365400
 O                0   -1.17404900   -0.74821900   -1.32296900
 H                0   -1.76807400   -4.27985300   -6.22438200
 H                0   -3.69533200   -5.13074300   -4.83738700
 H                0   -2.58767100   -6.15892500   -3.93331000
 H                0   -3.95720300   -2.79392500   -4.22489600
 H                0   -0.59072200   -5.00820600   -2.75730900
 H                0   -3.24952800   -0.83559500   -2.86577600
 H                0    0.09809500   -3.05438100   -1.37492600
 H                0   -0.72449100   -0.99508800   -0.43848900
 C               -1   -5.73186300    2.15636300   -2.89466100
 C                0   -4.66860800    3.24008600   -2.67515700
 C                0   -4.12342900    3.43312500   -1.26097700
 N                0   -4.40662100    2.48632100   -0.34368800
 O                0   -3.46695400    4.45191800   -0.98859800
 H                0   -5.34934200    1.16201400   -2.64972900
 H                0   -3.78968000    3.01892500   -3.28787100
 H                0   -5.03676200    4.22397900   -2.98772500
 H                0   -4.67928600    1.53866300   -0.60230900
 H                0   -3.93969500    2.55144900    0.55166200
 C               -1   -1.86175300   -6.76009500   -0.80898600
 C                0   -0.83843600   -6.02333900    0.05513900
 C                0   -1.38429700   -4.82823900    0.82537400
 O                0   -0.51321300   -4.42040400    1.74143100
 O                0   -2.46698200   -4.30340400    0.60968400
 H                0   -2.59478300   -7.28492900   -0.18731100
 H                0   -0.35201500   -6.69344500    0.77280100
 H                0   -0.02940000   -5.61668500   -0.56365000
 C               -1   -5.70971900   -3.40128100    0.67050000
 C                0   -5.07903000   -2.75882500   -0.57433400
 C                0   -4.57123100   -1.36504400   -0.24221400
 N                0   -3.50209800   -1.32399400    0.57304800
 O                0   -5.17522100   -0.35055100   -0.63213000
 H                0   -4.94553200   -3.58157800    1.43065100
 H                0   -4.25320800   -3.38078600   -0.92921200
 H                0   -5.81064300   -2.64903000   -1.37816500
 H                0   -2.92896300   -2.14966400    0.71548300
 H                0   -3.11188700   -0.42702100    0.82914700
 C               -1    4.70737000   -4.67144100    5.35581300
 C                0    5.39593400   -4.05327600    4.12979200
 C                0    4.61861200   -2.92632600    3.52037800
 C                0    3.35472000   -2.45296200    3.74055100
 N                0    5.13280900   -2.10353100    2.52223700
 C                0    4.21274500   -1.18482000    2.16042200
 N                0    3.13166600   -1.38494200    2.89546700
 H                0    3.72920800   -5.08275100    5.08811400
 H                0    6.39214300   -3.68820100    4.41498700
 H                0    5.56424200   -4.83223100    3.37319100
 H                0    6.03231600   -2.18766900    2.07135900
 H                0    2.59191500   -2.79217100    4.42125900
 H                0    4.37231000   -0.41686500    1.41473200
 C                0   -1.07311300    2.39111300   -2.19132900
 O                0   -2.17021800    1.50981400   -2.31416200
 C                0   -0.06958600    2.00932300   -1.09200000
 O                0    0.79946200    3.17319100   -0.95032600
 C                0   -0.63124700    1.77842000    0.32639600
 O                0    0.25524400    1.07034400    1.15008400
 C                0   -0.75990100    3.22577000    0.83577700
 C                0    0.54462500    3.82013800    0.31209200
 H                0    1.36900300    3.59269500    0.98683100
 H                0   -1.65060500    3.70465000    0.42103200
 H                0   -1.61301200    1.29820100    0.27477900
 H                0    0.54979400    1.16621300   -1.40254800
 H                0   -1.46811600    3.38980900   -1.97707000
 H                0   -0.80153900    3.24532700    1.92558300
 H                0   -0.50477900    2.46174100   -3.13431400
 P                0   -0.35848200   -0.80148400    2.23850300
 C                0   -2.60222200   -0.06315700    3.52250400
 O                0   -1.67480000    0.16266600    2.46977300
 C                0   -3.56435100    1.11749200    3.54192200
 O                0   -4.15333900    1.28636300    2.24985600
 C                0   -4.72951800    0.87816400    4.52306700
 O                0   -5.25206900    2.09219100    5.06293400
 C                0   -5.80185000    0.29535500    3.59975500
 C                0   -5.58145800    1.10436700    2.32323700
 O                0    0.81524300   -0.49849200    3.17421500
 O                0   -1.01025100   -2.16749100    3.10655100
 O                0   -0.27410400   -1.48984100    0.88708000
 H                0   -5.60512900   -0.76612800    3.41874600
 H                0   -4.44225000    0.18731800    5.33101600
 H                0   -3.15085000   -0.99588100    3.35856600
 H                0   -5.89466700    0.60125000    1.40746000
 H                0   -6.80145400    0.40898500    4.02596200
 H                0   -3.00578500    2.03121800    3.79428200
 H                0   -2.09062300   -0.12731600    4.49299400
 H                0    4.55682000   -3.92155300    6.13830200
 H                0    5.31402800   -5.48229400    5.76758400
 H                0   -1.36795500   -7.49616800   -1.45121700
 H                0   -2.40631700   -6.05144600   -1.43481900
 H                0   -1.89132900   -6.04700300   -6.35248000
 H                0   -0.65910000   -5.30520000   -5.31432600
 H                0   -6.61627600    2.32911000   -2.27197600
 H                0   -6.48751700   -2.75704200    1.09681900
 H                0   -6.16728700   -4.36466000    0.42086400
 H                0   -4.50822100    2.61547000    5.38828300
 H                0   -6.05046300    2.14740200   -3.94261400
 H                0    6.56069400   -1.87922900   -0.38684900
 H                0    7.73767800   -1.07993900   -1.44426900
 H                0   -0.79178700   -3.55173300    2.15113800
 H                0   -1.88854100    0.65284800   -1.93643800
 H                0    4.05781000   -2.64882900   -5.32358500
 H                0   -0.55405300   -2.18762000    3.95739800
 O                0    3.33597600    2.68747600   -1.25252200
 H                0    2.36614500    2.91414200   -1.23988900
 H                0    3.71793700    3.30686500   -0.61120100
 O                0    4.41888600   -1.45821600   -0.94081300
 H                0    4.90471300   -1.46962000   -1.77775600
 O                0    2.29643800    0.10678700    0.31758100
 H                0    1.35437900    0.65518300    0.67937700
 O                0    5.06144400    0.74689700   -2.71763100
 H                0    4.56963600    1.31579200   -3.32318500
 H                0    3.53703400   -1.87817000   -1.16018800
 H                0    1.89712200   -0.70545400   -0.04032300
 H                0    5.82476300    1.26474500   -2.32581400
 H                0    2.14073200   -0.86734600    2.86283500
 H                0   -6.07123300    2.08399900    2.39092700
 Mg               0    3.66953800    0.66594100   -1.03685900
 C                0   -0.49377300    5.94863900   -0.37310600
 C                0   -0.40495900    7.27598500   -0.66371600
 H                0   -1.42376700    5.40090900   -0.49271900
 H                0   -1.26495500    7.82312800   -1.02846100
 N                0    0.59137600    5.26332200    0.08070700
 N                0    1.95211200    7.22922000   -0.09483200
 C                0    0.87160000    7.88878800   -0.46874100
 C                0    1.89104700    5.87645600    0.10908100
 N                0    1.02137000    9.23038100   -0.71339500
 H                0    0.20535100    9.82053900   -0.68176100
 H                0    1.88865300    9.63103100   -0.38681000
 O                0    2.87975400    5.18101300    0.33336000

 1 2 1.0 6 1.0 121 1.0 122 1.0
 2 3 1.0 7 1.0 8 1.0
 3 4 2.0 5 2.0
 4 141 1.0
 5
 6
 7
 8
 9 10 1.0 14 1.0 15 1.0 125 1.0
 10 11 1.0 16 1.0 17 1.0
 11 12 2.0 13 2.0
 12
 13 141 1.0
 14
 15
 16
 17
 18 19 1.0 27 1.0 114 1.0 115 1.0
 19 20 1.0 28 1.0 29 1.0
 20 21 1.5 22 1.5
 21 23 1.5 30 1.0
 22 24 1.5 31 1.0
 23 25 1.5 32 1.0
 24 25 1.5 33 1.0
 25 26 1.0
 26
 27
 28
 29
 30
 31
 32
 33
 34
 35 36 1.0 40 1.0 116 1.0 120 1.0
 36 37 1.0 41 1.0 42 1.0
 37 38 1.5 39 2.0
 38 43 1.0 44 1.0
 39
 40
 41
 42
 43
 44
 45 46 1.0 50 1.0 112 1.0 113 1.0
 46 47 1.0 51 1.0 52 1.0
 47 48 1.5 49 2.0
 48 123 1.0
 49
 50
 51
 52
 53 54 1.0 58 1.0 117 1.0 118 1.0
 54 55 1.0 59 1.0 60 1.0
 55 56 1.5 57 2.0
 56 61 1.0 62 1.0
 57
 58
 59
 60
 61
 62
 63 64 1.0 70 1.0 110 1.0 111 1.0
 64 65 1.0 71 1.0 72 1.0
 65 66 2.0 67 1.0
 66 69 1.5 74 1.0
 67 68 1.5 73 1.0
 68 69 2.0 75 1.0
 69
 70
 71
 72
 73
 74
 75
 76 77 1.0 78 1.0 88 1.0 90 1.0
 77 124 1.0
 78 79 1.0 80 1.0 87 1.0
 79 83 1.0
 80 81 1.0 82 1.0 86 1.0
 81
 82 83 1.0 85 1.0 89 1.0
 83 84 1.0 146 1.0
 84
 85
 86
 87
 88
 89
 90
 91 93 1.0 100 2.0 101 1.0 102 2.0
 92 93 1.0 94 1.0 105 1.0 109 1.0
 93
 94 95 1.0 96 1.0 108 1.0
 95 99 1.0
 96 97 1.0 98 1.0 104 1.0
 97 119 1.0
 98 99 1.0 103 1.0 107 1.0
 99 106 1.0 140 1.0
 100
 101 126 1.0
 102
 103
 104
 105
 106
 107
 108
 109
 110
 111
 112
 113
 114
 115
 116
 117
 118
 119
 120
 121
 122
 123
 124
 125
 126
 127 128 1.0 129 1.0 141 1.0
 128
 129
 130 131 1.0 136 1.0
 131
 132 137 1.0 141 1.0
 133
 134 135 1.0 138 1.0
 135
 136
 137
 138
 139
 140
 141
 142 143 2.0 144 1.0 146 1.5
 143 145 1.0 148 1.5
 144
 145
 146 149 1.0
 147 148 2.0 149 1.5
 148 150 1.5
 149 153 2.0
 150 151 1.0 152 1.0
 151
 152
 153

eps=4









