%nprocshared=4
%mem=1GB
# opt=maxstep=10 b3lyp/6-31g(d,p) empiricaldispersion=gd3

Title Card Required

-1 1
 C               -1   -7.03991800    0.49604600   -1.02896600
 C                0   -5.93587800    0.48569800    0.03475500
 C                0   -4.68532600   -0.21063200   -0.50203500
 N                0   -3.53316300    0.44608400   -0.38377000
 O                0   -4.78559800   -1.34150400   -1.01904500
 H                0   -6.74143600    1.09871000   -1.89283100
 H                0   -5.70109000    1.50011900    0.37567600
 H                0   -6.27571200   -0.07520500    0.91334100
 H                0   -3.45343800    1.29877700    0.15392500
 H                0   -2.68577400    0.07769200   -0.84489400
 C               -1   -5.59049300   -4.56154500   -1.23793800
 C                0   -5.28084400   -5.41026800    0.01324500
 C                0   -3.78089200   -5.67268600    0.03800700
 O                0   -3.04449200   -4.73292200    0.50818100
 O                0   -3.37067700   -6.72828100   -0.50158600
 H                0   -6.67144300   -4.52222800   -1.41937000
 H                0   -5.58865600   -4.88320100    0.92486300
 H                0   -5.80673500   -6.36807900   -0.03421600
 C               -1   -3.60420900   -0.85462500   -4.68282600
 C                0   -2.43859700   -0.01626100   -4.11652100
 C                0   -1.60134100   -0.81875200   -3.10460700
 O                0   -1.40773500   -0.31940300   -1.95179000
 O                0   -1.20123300   -1.95616800   -3.47880800
 H                0   -4.29755900   -1.13626400   -3.88158900
 H                0   -3.21283800   -1.77245100   -5.12837900
 H                0   -1.76696000    0.27984300   -4.93184900
 H                0   -2.80032100    0.90039000   -3.64109900
 C               -1   -2.32580200    5.42629000   -5.35369600
 C                0   -1.61653600    5.93683400   -4.08902100
 C                0   -1.02656000    4.82326600   -3.24970500
 C                0    0.35527900    4.66773700   -3.08928900
 C                0   -1.85771800    3.88167600   -2.62728100
 C                0    0.89123100    3.63362100   -2.32280300
 C                0   -1.34349900    2.84594100   -1.85387200
 C                0    0.04149400    2.72709100   -1.67961100
 O                0    0.60523600    1.76129100   -0.90858300
 H                0   -1.62645800    4.88082600   -5.99539000
 H                0   -0.82359600    6.63914200   -4.37334400
 H                0   -2.33491700    6.51525100   -3.49080700
 H                0    1.03107200    5.37284200   -3.56835300
 H                0   -2.93480700    3.95028700   -2.76443100
 H                0    1.96138200    3.53862600   -2.18441800
 H                0   -1.99254300    2.10032600   -1.42192000
 H                0   -0.06560400    1.27025900   -0.37394900
 C               -1    5.65020100    3.63781800   -1.96009200
 C                0    5.11161600    2.30470400   -2.50414500
 C                0    4.84209600    1.30388100   -1.38896600
 N                0    3.89145300    1.66937500   -0.50808700
 O                0    5.45671400    0.23084400   -1.31329300
 H                0    4.90735500    4.16174800   -1.35549500
 H                0    4.17929400    2.46513000   -3.05985500
 H                0    5.82967500    1.83584900   -3.18105000
 H                0    3.52943900    2.61951800   -0.45911900
 H                0    3.79278700    1.14749000    0.35091200
 C               -1   -3.87418200    6.11206500   -0.54762400
 C                0   -4.00836700    4.70652300    0.02779900
 C                0   -2.79322300    4.25732400    0.81328200
 O                0   -2.96749600    3.02198500    1.30821300
 O                0   -1.78926500    4.92112000    0.99680400
 H                0   -3.73456000    6.84872000    0.24840200
 H                0   -4.87635300    4.61862100    0.69336900
 H                0   -4.16363300    3.96320900   -0.76239100
 C               -1    0.99415300    6.82501700    1.46941600
 C                0    1.24229600    6.00472700    0.19671800
 C                0    1.93978800    4.68649500    0.49066100
 N                0    1.28009900    3.83913000    1.30341400
 O                0    3.07143100    4.43785600    0.04207700
 H                0    0.28338500    6.31783600    2.12668400
 H                0    0.28903300    5.79041100   -0.29700500
 H                0    1.87970800    6.54604300   -0.50591800
 H                0    0.29266200    3.97497300    1.48231900
 H                0    1.64331000    2.89850200    1.40918300
 C               -1   -6.94436800   -0.80003400    4.77381500
 C                0   -6.63727800   -1.63742900    3.51830300
 C                0   -5.18102700   -1.61980200    3.16820300
 C                0   -4.11035300   -1.17517300    3.89006500
 N                0   -4.64342100   -2.06324500    1.96007000
 C                0   -3.31194900   -1.87224400    1.94165900
 N                0   -2.98000900   -1.35300800    3.11951100
 H                0   -6.63381300    0.23941900    4.63247100
 H                0   -6.97366000   -2.67195100    3.66951500
 H                0   -7.21891000   -1.25346000    2.66986500
 H                0   -5.13616300   -2.40059300    1.14083400
 H                0   -4.06529500   -0.74733000    4.87741800
 H                0   -2.59112300   -2.04004700    1.09784300
 C                0    2.44292900   -1.13052300   -2.37728300
 O                0    1.66750400   -0.04225300   -2.82523700
 C                0    1.80087700   -1.95673300   -1.25364400
 O                0    2.54295900   -3.21640700   -1.13604200
 C                0    1.87853500   -1.35338600    0.16425200
 O                0    0.96271600   -1.95691100    1.06947200
 C                0    3.28843200   -1.76587000    0.59578800
 C                0    3.39499000   -3.18624700    0.02588300
 H                0    3.04942100   -3.93545100    0.73681200
 H                0    4.04988400   -1.10886400    0.16789000
 H                0    1.74618600   -0.26690400    0.15252200
 H                0    0.77258400   -2.19003200   -1.54004200
 H                0    3.44639900   -0.81005600   -2.06690500
 H                0    3.38289100   -1.76641000    1.68363100
 H                0    2.56587800   -1.80767100   -3.22925800
 P                0   -0.40398300    0.85157100    2.46203300
 C                0    1.87208300    1.29373600    3.66961500
 O                0    1.21539000    1.00951900    2.43280900
 C                0    3.36890700    1.15608500    3.44163600
 O                0    3.71787000    1.88290900    2.26478200
 C                0    4.19592600    1.76547800    4.59354200
 O                0    5.44573200    1.10711600    4.77654200
 C                0    4.50239100    3.16727900    4.05446400
 C                0    4.70035900    2.88842300    2.56501600
 O                0   -0.80847000   -0.03153100    3.62419500
 O                0   -0.86408700    2.41074400    2.93182500
 O                0   -0.90656300    0.70640200    1.06279700
 H                0    3.64110800    3.82580700    4.20741700
 H                0    3.62376000    1.78727900    5.53456100
 H                0    1.63384000    2.32283600    3.97362100
 H                0    4.50196100    3.73503800    1.90511600
 H                0    5.37756800    3.59877300    4.54544500
 H                0    3.61354100    0.09521200    3.28897900
 H                0    1.53486600    0.60005000    4.44863400
 H                0   -6.41932600   -1.19712900    5.64811900
 H                0   -8.01578300   -0.81414600    4.99075300
 H                0   -4.76472600    6.38192000   -1.12270000
 H                0   -3.00163900    6.16562400   -1.20335900
 H                0   -2.75411700    6.25214800   -5.93361000
 H                0   -3.13659500    4.73718300   -5.09671900
 H                0    6.53942800    3.47014200   -1.34200200
 H                0    1.92456100    6.99010600    2.02374700
 H                0    0.57136600    7.80356700    1.21890000
 H                0    5.28112900    0.15736400    4.84290200
 H                0   -7.21815300   -0.52306900   -1.38030100
 H                0   -7.97301700    0.90723400   -0.63069600
 H                0    5.93919600    4.29905800   -2.78469600
 H                0   -5.23608300   -3.53887300   -1.12757500
 H                0   -5.10747700   -4.99119300   -2.11822700
 H                0   -2.15549800    2.75886500    1.81315700
 H                0    1.40483700    0.50755100   -2.06766500
 H                0   -4.16489800   -0.29841400   -5.44247200
 H                0   -1.12466700    2.38810400    3.86240900
 O                0    0.46416300   -4.44748200    0.17552300
 H                0    1.15859100   -4.37577900   -0.51179300
 H                0    0.68150800   -3.64320100    0.72042700
 O                0   -2.77310700   -3.49440600   -2.14685900
 H                0   -2.18336700   -3.00014500   -2.79462400
 O                0   -1.30222400   -2.20799200    0.04017900
 H                0   -0.00318800   -1.90994300    0.68087600
 O                0   -1.13261500   -5.91481200   -1.48665000
 H                0   -0.41340400   -6.30624300   -0.97208500
 H                0   -3.35016700   -2.79372200   -1.79033500
 H                0   -1.30743800   -1.52223200   -0.66285100
 H                0   -1.97058800   -6.38797200   -1.16332200
 H                0   -2.02186500   -0.95240000    3.34093200
 H                0    5.70607700    2.49407000    2.37136400
 Mg               0   -1.50558600   -4.04392300   -0.58866100
 C                0    5.49611100   -2.88833300   -1.20206300
 C                0    6.72489200   -3.31169000   -1.60434700
 H                0    5.08965800   -1.94155000   -1.53170700
 H                0    7.31918700   -2.71766000   -2.28670300
 N                0    4.74627000   -3.62232600   -0.33875300
 N                0    6.46595900   -5.29586500   -0.23557700
 C                0    7.16960400   -4.56182300   -1.07509200
 C                0    5.22072200   -4.88474300    0.17267600
 N                0    8.38458100   -5.06834300   -1.47023300
 H                0    9.07872200   -4.42364800   -1.81469000
 H                0    8.72266200   -5.83781000   -0.91032800
 O                0    4.52191800   -5.52171100    0.95082400

