%nprocshared=8
%mem=30GB
# freq b3lyp/6-31g(d,p) empiricaldispersion=gd3

M1 TS1 opt4

-1 1
 C               -1    3.96547800   -5.37448000    0.31431200
 C                0    2.58251800   -5.25269900   -0.30658700
 O                0    2.18521100   -4.06681600   -0.59340100
 O                0    1.88425100   -6.29034700   -0.40416500
 H                0    4.66831000   -4.64349700   -0.09376300
 H                0    4.36030700   -6.38760400    0.21191000
 C               -1   -0.51925400   -1.17407100    3.91157800
 C                0   -0.30260500   -2.53444700    3.27939300
 O                0    0.22214000   -3.43999800    3.97438300
 O                0   -0.62837700   -2.64416400    2.04418400
 H                0   -0.30493600   -1.20101600    4.98114200
 H                0   -1.53389800   -0.81117900    3.73710700
 C               -1    3.21762000    6.28493000    1.47318800
 C                0    4.35651000    5.25903800    1.34886600
 C                0    3.89034300    3.99473100    0.64154900
 O                0    3.04292500    3.29029500    1.36952500
 O                0    4.25105500    3.70153100   -0.49590400
 H                0    2.86448200    6.59243900    0.48325400
 H                0    5.19322800    5.67235200    0.78014900
 H                0    4.71193700    4.98368600    2.34810300
 C               -1    8.11972600   -0.30347200   -2.77926000
 C                0    7.56723800   -0.25535100   -1.34261400
 C                0    6.14766200   -0.71023400   -1.22604000
 C                0    4.99822200   -0.06333900   -0.84886100
 N                0    5.73865700   -2.00423300   -1.53390900
 C                0    4.39488700   -2.08794900   -1.33609300
 N                0    3.92224100   -0.92828000   -0.91870800
 H                0    7.51874200    0.32365600   -3.44418900
 H                0    8.21149200   -0.85694600   -0.68528800
 H                0    7.61644200    0.77043800   -0.96385200
 H                0    6.33517000   -2.76053900   -1.83167000
 H                0    4.86955000    0.96606600   -0.54489600
 H                0    3.79199600   -2.98026900   -1.45449600
 C                0   -2.98200800    0.50559400    1.73478300
 O                0   -2.01321800    1.37232200    2.30642300
 C                0   -2.35279700   -0.27932100    0.59066700
 O                0   -3.21199100   -1.34525900    0.08570300
 C                0   -2.03318700    0.60442600   -0.61933600
 O                0   -0.83981600    0.18277600   -1.26317200
 C                0   -3.24077000    0.39505900   -1.54193000
 C                0   -3.82212400   -0.97015100   -1.13245600
 H                0   -3.63629400   -1.74243100   -1.88284900
 H                0   -3.98551500    1.17821100   -1.37866200
 H                0   -1.95425900    1.65486900   -0.33396200
 H                0   -1.46770100   -0.77861800    0.97820100
 H                0   -3.83722400    1.10259700    1.37937900
 H                0   -2.95095000    0.41578300   -2.59076300
 H                0   -3.36084900   -0.20130800    2.48985600
 P                0    0.63362900    0.87461900   -0.63487100
 C                0    0.45826900    3.52873200   -0.57992800
 O                0    0.18128500    2.32718400   -1.29529300
 C                0   -0.73311900    4.47126300   -0.73691300
 O                0   -1.92791600    3.89570800   -0.21162100
 C                0   -0.52333200    5.77446400    0.05202200
 O                0   -1.34492800    6.84017500   -0.42860600
 C                0   -1.05259300    5.38107700    1.43217200
 C                0   -2.22787600    4.45543000    1.08271200
 O                0    1.35504000   -0.19666600   -1.61553200
 O                0    2.30403600    1.55531400   -0.27940900
 O                0    0.39038800    0.66393300    0.86707000
 H                0   -0.27808100    4.84536400    1.98958000
 H                0    0.53342600    6.07780400    0.07406300
 H                0    0.61895500    3.31857700    0.48020500
 H                0   -2.35151200    3.63115200    1.79045600
 H                0   -1.35205200    6.26101800    2.00649700
 H                0   -0.89575100    4.66132500   -1.80793200
 H                0    1.36676700    4.00521100   -0.97338300
 H                0    8.10333100   -1.32298800   -3.18109700
 H                0    9.15563800    0.04952200   -2.81208400
 H                0    3.55102000    7.18170900    2.00499100
 H                0    2.37298000    5.85301700    2.01681400
 H                0   -1.23191800    6.88759100   -1.38666400
 H                0    2.69583100    2.49540500    0.78798500
 H                0   -1.14208800    1.17741300    1.89744500
 H                0    2.72163000    1.95463100   -1.05830000
 O                0   -0.69591300   -2.51760200   -0.83568300
 H                0   -1.56007600   -2.44293900   -0.39140000
 H                0   -0.53866500   -1.59944600   -1.16739300
 O                0    1.37343200   -4.73159700    2.11706000
 H                0    1.01516500   -5.60960800    1.93602500
 O                0    1.78023500   -1.69717600    1.06573700
 H                0    2.54414300   -1.46843400    0.50676000
 O                0   -0.45317300   -5.14173200   -0.12543500
 H                0   -0.76640000   -4.77161500   -0.96307500
 H                0    0.90299800   -4.37072000    2.94705100
 H                0    1.26794300   -0.85626700    1.16825400
 H                0    0.34226500   -5.70473600   -0.37221800
 H                0    2.30088000   -0.34071400   -1.35799700
 H                0   -3.16258800    5.02544500    1.00364900
 Mg               0    0.63236500   -3.38033500    0.61342400
 C                0   -5.87679700   -1.05805100    0.26912700
 C                0   -7.23271700   -0.99291200    0.41302000
 H                0   -5.19497800   -1.22686600    1.09277100
 H                0   -7.70041600   -1.11343100    1.38188000
 N                0   -5.30216800   -0.92708600   -0.94607600
 N                0   -7.44603300   -0.67599000   -1.98228500
 C                0   -7.98667600   -0.78803000   -0.78344800
 C                0   -6.08446600   -0.75637800   -2.13334500
 N                0   -9.35973300   -0.74052700   -0.71755500
 H                0   -9.78240900   -0.46546900    0.15554700
 H                0   -9.80583000   -0.39593600   -1.55580700
 O                0   -5.49826500   -0.67917800   -3.20689400
 H                0    0.14871600   -0.46033800    3.41888000
 H                0    3.82736300   -5.14764700    1.37626500

