%nprocshared=8
%mem=30GB
# opt=maxstep=10 b3lyp/6-31g(d,p) geom=connectivity empiricaldispersion=gd3

IC-185

-1 1
 C               -1    4.92330400    2.25320400    3.32513900
 C                0    4.03762600    2.35066200    2.08344200
 C                0    3.70390100    0.98891300    1.48358600
 N                0    2.55567600    0.91679600    0.80680700
 O                0    4.46835600    0.00866300    1.63914800
 H                0    4.40475800    1.73669600    4.13944800
 H                0    3.10175700    2.87182300    2.30904800
 H                0    4.51971900    2.94659600    1.30061400
 H                0    2.04574700    1.76142700    0.53751100
 H                0    2.26042800    0.00870100    0.45744100
 C               -1    5.79848400   -3.43458100    2.76602100
 C                0    4.79833500   -4.55888000    2.44379700
 C                0    4.39454500   -4.46882100    0.97683100
 O                0    3.18027900   -4.23276700    0.68880000
 O                0    5.34012700   -4.54799200    0.13092600
 H                0    6.68233400   -3.53259100    2.13033400
 H                0    5.27298200   -5.53246100    2.61501700
 H                0    3.90729400   -4.48944100    3.07150800
 C               -1    1.88712600   -2.04007200    3.18617200
 C                0    0.61942100   -1.62596300    2.42305400
 C                0    0.60840100   -2.19581600    1.02032200
 O                0    1.50693200   -1.72388800    0.19049100
 O                0   -0.20688900   -3.07913200    0.69679600
 H                0    2.77887500   -1.66315500    2.67782100
 H                0    1.96688300   -3.12910700    3.24759000
 H                0   -0.27796400   -1.97835100    2.93792800
 H                0    0.56474100   -0.53810400    2.33258200
 C               -1    0.22173600    5.59907300    1.21823300
 C                0    1.74253000    5.54521000    1.09650400
 C                0    2.24898000    4.46839500    0.12200100
 O                0    3.39804100    4.64922100   -0.35798000
 O                0    1.48584400    3.47074800   -0.09142000
 H                0   -0.23444100    5.83932200    0.25165400
 H                0    2.16099500    6.50659000    0.78224100
 H                0    2.19278700    5.32232300    2.07436000
 C               -1    7.85711000    2.74575900   -1.57722800
 C                0    6.61543800    2.54356200   -0.68812400
 C                0    5.48656600    1.85439300   -1.39589800
 C                0    5.35978800    0.57977500   -1.89728900
 N                0    4.28932600    2.48171700   -1.68186100
 C                0    3.49538900    1.58835400   -2.30768300
 N                0    4.11251500    0.42278600   -2.46605400
 H                0    7.61129100    3.35754600   -2.45105200
 H                0    6.89202000    1.96217600    0.20093800
 H                0    6.26081700    3.51529100   -0.32595500
 H                0    3.95135400    3.39017700   -1.27334700
 H                0    6.06036500   -0.23925500   -1.84489600
 H                0    2.49240800    1.83003500   -2.62480900
 H                0    0.25166000    2.31483000   -2.72523300
 Mg               0    2.77231600   -2.93493400   -0.90822000
 C                0   -5.36306400   -2.16093600   -1.28122600
 C                0   -4.26397800   -1.37673200   -2.00213100
 C                0   -3.23606500   -1.14241000   -0.90008600
 O                0   -1.91616900   -0.98549000   -1.44900800
 C                0   -3.35140500   -2.39887000   -0.03161100
 O                0   -4.70082300   -2.88384900   -0.24218300
 C                0   -3.18187600   -2.12650500    1.45948200
 O                0   -4.23481600   -1.29148100    1.93735600
 N                0   -6.44635800   -1.32448000   -0.72194900
 C                0   -7.74064600   -1.95412100   -0.56983500
 O                0   -7.90017500   -3.09163100   -0.98958400
 N                0   -8.72575400   -1.22522300    0.04825100
 C                0   -8.49522400    0.00953600    0.45000300
 N                0   -9.54348200    0.68194900    1.02077900
 C                0   -7.23855100    0.67390600    0.28749400
 C                0   -6.24364700   -0.04700900   -0.29478700
 H                0   -7.06388800    1.69708300    0.59631300
 H                0   -5.26811600    0.39695400   -0.43511900
 H                0   -9.34678000    1.47712600    1.60755700
 H                0   -5.87576500   -2.88390400   -1.91261300
 H                0  -10.33580100    0.10979900    1.27427400
 H                0   -4.61109000   -0.46234100   -2.48716200
 H                0   -3.47806500   -0.26581000   -0.30464900
 H                0   -2.62517600   -3.14752800   -0.36683500
 H                0   -3.14644800   -3.07909500    2.00632200
 H                0   -3.81305800   -2.01944400   -2.76408700
 H                0   -2.24263100   -1.59707200    1.61891800
 C                0   -1.67932400    2.76320800   -0.92952500
 O                0   -3.69552200    1.80654600    0.11090100
 P                0   -1.01313300    0.21585400   -0.85960800
 O                0   -1.01342900    0.35539800    0.61995800
 O                0    0.73573400    3.15076300   -2.76030400
 O                0   -4.52666000    4.58718000    0.58737500
 O                0   -1.54469000    1.51520400   -1.65765900
 C                0   -3.12945300    2.97835000   -0.48165500
 C                0   -3.20284200    4.04764300    0.60991500
 C                0   -2.94474000    3.20711300    1.87108200
 C                0   -3.66224600    1.89129200    1.55398000
 H                0   -1.36892000    3.54523300   -1.62425000
 H                0   -0.98109700    2.77131400   -0.09074000
 H                0   -3.75565700    3.24326300   -1.33961200
 H                0   -2.45180900    4.83577900    0.46597400
 H                0   -1.87224300    3.03632100    1.99834400
 H                0   -3.32151000    3.69605800    2.77521500
 H                0   -4.69753500    1.88785200    1.91330200
 H                0   -3.14703300    1.01162600    1.93848800
 O                0    4.48824600   -1.85274400   -0.31058100
 H                0    5.17942700   -2.48424900   -0.05518400
 H                0    4.44480900   -1.16097900    0.40706800
 O                0    2.67378800   -1.74634600   -2.59708300
 H                0    3.27040500   -0.89835600   -2.60344400
 H                0    1.80891200   -1.48170300   -2.93410600
 O                0    1.03886300   -4.03494500   -1.41744300
 H                0    1.24411100   -4.96665600   -1.26582500
 H                0    0.40862200   -3.76097200   -0.68737600
 O                0    3.98846200   -4.23350000   -2.05069100
 H                0    4.42695400   -3.70719200   -2.73117700
 H                0    4.65999500   -4.45660500   -1.32930300
 O                0    0.39101100   -0.08968100   -1.54514400
 H                0    1.04150500    3.27072000   -1.83344200
 H                0    0.88150300   -0.75509200   -0.96947000
 H                0   -5.05331300   -1.72960800    1.65912100
 H                0   -4.59847800    5.19712300    1.33289300
 H                0    8.23407900    1.78435700   -1.94076200
 H                0    8.66342400    3.24170700   -1.02467800
 H                0   -0.10224600    6.35284800    1.94552300
 H                0   -0.16126900    4.62370600    1.52655100
 H                0    5.20909000    3.24962900    3.67633100
 H                0    5.82805200    1.68236600    3.10165800
 H                0    5.35404100   -2.44874100    2.58914400
 H                0    6.11499400   -3.47532300    3.81360400
 H                0    1.87115300   -1.63269700    4.20218900

 1 2 1.0 6 1.0 118 1.0 119 1.0
 2 3 1.0 7 1.0 8 1.0
 3 4 1.5 5 2.0
 4 9 1.0 10 1.0
 5
 6
 7
 8
 9
 10
 11 12 1.0 16 1.0 120 1.0 121 1.0
 12 13 1.0 17 1.0 18 1.0
 13 14 2.0 15 2.0
 14 50 1.0
 15
 16
 17
 18
 19 20 1.0 24 1.0 25 1.0 122 1.0
 20 21 1.0 26 1.0 27 1.0
 21 22 1.5 23 2.0
 22 50 1.0
 23
 24
 25
 26
 27
 28 29 1.0 33 1.0 116 1.0 117 1.0
 29 30 1.0 34 1.0 35 1.0
 30 31 2.0 32 2.0
 31
 32
 33
 34
 35
 36 37 1.0 43 1.0 114 1.0 115 1.0
 37 38 1.0 44 1.0 45 1.0
 38 39 2.0 40 1.5
 39 42 1.5 47 1.0
 40 41 1.5 46 1.0
 41 42 1.5 48 1.0
 42
 43
 44
 45
 46
 47
 48
 49 82 1.0
 50 97 1.0 100 1.0 103 1.0 106 1.0
 51 52 1.0 56 1.0 59 1.0 70 1.0
 52 53 1.0 72 1.0 76 1.0
 53 54 1.0 55 1.0 73 1.0
 54 80 1.0
 55 56 1.0 57 1.0 74 1.0
 56
 57 58 1.0 75 1.0 77 1.0
 58 112 1.0
 59 60 1.0 66 1.5
 60 61 2.0 62 1.5
 61
 62 63 2.0
 63 64 1.5 65 1.5
 64 69 1.0 71 1.0
 65 66 2.0 67 1.0
 66 68 1.0
 67
 68
 69
 70
 71
 72
 73
 74
 75
 76
 77
 78 84 1.0 85 1.0 89 1.0 90 1.0
 79 85 1.0 88 1.0
 80 81 2.0 84 1.0 109 1.5
 81
 82 110 1.0
 83 86 1.0 113 1.0
 84
 85 86 1.0 91 1.0
 86 87 1.0 92 1.0
 87 88 1.0 93 1.0 94 1.0
 88 95 1.0 96 1.0
 89
 90
 91
 92
 93
 94
 95
 96
 97 98 1.0 99 1.0
 98
 99
 100 102 1.0
 101
 102
 103 104 1.0 105 1.0
 104
 105
 106 107 1.0 108 1.0
 107
 108
 109 111 1.0
 110
 111
 112
 113
 114
 115
 116
 117
 118
 119
 120
 121
 122

