%chk=Model2_TS1_tsopt1.chk
%nprocshared=8
%mem=32GB
# opt=(calcfc,ts,noeigen) b3lyp/6-31g(d,p) empiricaldispersion=gd3

Model 2 freeze opt TS1 part 2

-1 1
 C               -1   -0.04595800    6.10152000    1.74638700
 C                0    1.19376900    6.66496500    1.03061800
 C                0    2.24505200    5.56580100    0.88622700
 O                0    1.85395600    4.50952700    0.27319100
 O                0    3.37156700    5.71221100    1.42069500
 H                0   -0.82662100    6.86586700    1.83978600
 H                0    0.91548400    7.02028100    0.02812400
 H                0    1.62669700    7.50856200    1.57546000
 C               -1   -1.81918800    1.64222400    4.30099800
 C                0   -0.69549900    0.64918500    3.93316000
 C                0    0.64299800    1.37416100    3.76439000
 O                0    0.99401200    2.13665900    4.70296000
 O                0    1.29447800    1.20982200    2.67245300
 H                0   -2.76569500    1.11641000    4.46617400
 H                0   -1.96423100    2.36283000    3.48907100
 H                0   -0.58152700   -0.08879100    4.73749500
 H                0   -0.92611100    0.09951100    3.02019100
 C               -1   -6.01419000   -3.23307700    3.89171800
 C                0   -5.64341200   -3.86443100    2.54317700
 C                0   -4.24993200   -3.43228700    2.17052400
 C                0   -3.13710900   -4.23387000    2.44505400
 C                0   -4.03070600   -2.13047700    1.70454900
 C                0   -1.84367200   -3.75124400    2.26490400
 C                0   -2.74971100   -1.62839400    1.51721000
 C                0   -1.64719500   -2.44797700    1.79745900
 O                0   -0.37420800   -2.00831200    1.64143400
 H                0   -5.30633200   -3.54389800    4.66706800
 H                0   -5.70544400   -4.95740000    2.60918200
 H                0   -6.36554500   -3.55177100    1.77835500
 H                0   -3.28455300   -5.24470600    2.81944800
 H                0   -4.88149300   -1.48802200    1.49991500
 H                0   -0.97446900   -4.36467900    2.48124300
 H                0   -2.59767600   -0.62377100    1.14114900
 H                0   -0.36984800   -1.20723400    1.03026600
 C               -1   -7.42331400   -1.45379500   -0.67061100
 C                0   -6.49005700   -0.25730500   -0.46942300
 C                0   -5.12137500   -0.41119900   -1.13796700
 O                0   -4.25658600    0.47816900   -0.72910900
 O                0   -4.92266000   -1.27688000   -1.99518400
 H                0   -7.57694000   -1.64519800   -1.73563700
 H                0   -6.93558800    0.65606200   -0.88654200
 H                0   -6.32915600   -0.03981000    0.59167400
 C               -1   -3.74763400    6.14313200   -4.45180400
 C                0   -3.83615100    5.87439600   -2.93674800
 C                0   -2.63944200    5.17324800   -2.37616800
 C                0   -2.43544200    3.87813500   -1.97376100
 N                0   -1.40508700    5.79340600   -2.20170900
 C                0   -0.52934300    4.87775700   -1.70784300
 N                0   -1.12655700    3.70788500   -1.56625100
 H                0   -3.63432900    5.20472600   -5.00230200
 H                0   -3.99879900    6.82238100   -2.40524200
 H                0   -4.71268500    5.25333000   -2.72595400
 H                0   -1.20302000    6.76741200   -2.36763200
 H                0   -3.12666200    3.04966200   -1.93383500
 H                0    0.49027200    5.08021400   -1.40494900
 C                0    2.64952600   -2.93512700    1.08556000
 O                0    1.56526800   -3.83388900    1.00441800
 C                0    2.37732900   -1.61059500    0.35006800
 O                0    3.62642900   -0.86927800    0.15934900
 C                0    1.86432400   -1.78223700   -1.08160500
 O                0    1.42001200   -0.51733200   -1.57904200
 C                0    3.16144600   -2.09934400   -1.82951800
 C                0    4.19166900   -1.21063800   -1.10381000
 H                0    4.39112600   -0.29072100   -1.65817900
 H                0    3.42496800   -3.15460800   -1.72302800
 H                0    1.10208400   -2.55711500   -1.17656200
 H                0    1.74426100   -0.95404200    0.94754300
 H                0    3.51418800   -3.43316400    0.63158500
 H                0    3.09996200   -1.85888400   -2.88808300
 H                0    2.92376600   -2.69522900    2.12701900
 P                0   -0.17194800   -0.01854800   -1.46023400
 C                0   -1.95533300   -1.87590000   -2.02085200
 O                0   -0.69866500   -1.25714200   -2.37126900
 C                0   -1.84202300   -3.37705200   -2.04825700
 O                0   -0.80744800   -3.81663200   -1.17659700
 C                0   -3.10559600   -4.04131000   -1.46339000
 O                0   -4.21741900   -4.07496000   -2.33265200
 C                0   -2.57320700   -5.43967700   -1.12741300
 C                0   -1.07365500   -5.18980500   -0.84044600
 O                0    0.29357400    1.37848200   -2.13173300
 O                0   -2.06861000    0.79446400   -1.78203100
 O                0   -0.49020800   -0.03586500    0.03221600
 H                0   -3.09695100   -5.88503700   -0.27787500
 H                0   -3.34849900   -3.51904000   -0.52960600
 H                0   -2.25362700   -1.56572500   -1.02147100
 H                0   -0.80814500   -5.31802600    0.21071700
 H                0   -2.71737300   -6.08386000   -2.00157300
 H                0   -1.67542500   -3.74379700   -3.07607900
 H                0   -2.73317700   -1.56129800   -2.71509900
 H                0   -2.88550300    6.77463700   -4.69314400
 H                0   -4.64823800    6.65068100   -4.81252500
 H                0   -8.39413400   -1.27836900   -0.19661500
 H                0   -6.98583300   -2.36080900   -0.24170700
 H                0   -7.02381400   -3.51563100    4.21558700
 H                0   -5.97070300   -2.14128600    3.82839700
 H                0   -4.62569700   -3.19186400   -2.28704900
 H                0   -0.45036200    5.25257200    1.19239900
 H                0    0.21901800    5.73655500    2.73968400
 H                0   -3.25589300    0.51572300   -1.22099500
 H                0    0.76525200   -3.30829300    1.20699200
 H                0   -1.54641400    2.19324600    5.20398700
 H                0   -2.21404000    0.76924500   -2.73820300
 O                0    2.58137500    1.69263900   -0.20374700
 H                0    2.89864400    0.78149500   -0.04034500
 H                0    1.99400700    1.61951500   -0.97743500
 O                0    1.78528700    3.99960900    3.19550600
 H                0    1.62606300    3.33109100    3.94542000
 O                0   -0.19469900    2.56279500    0.90841900
 H                0   -0.54518300    2.97851400    0.09643700
 O                0    4.00556200    3.13158700    1.61479300
 H                0    4.23210000    2.80876100    0.73055400
 H                0    2.62247300    4.45800500    3.33541300
 H                0   -0.39419600    1.60510200    0.81120700
 H                0    3.96588600    4.12634800    1.50391000
 H                0   -0.36851900    2.09710400   -1.95716700
 H                0   -0.42989200   -5.84904200   -1.44000000
 Mg               0    1.82275400    2.78210900    1.45360600
 C                0    5.99582400   -2.12795800    0.34396300
 C                0    7.20725700   -2.73452200    0.50183800
 H                0    5.37242000   -1.81470000    1.17130600
 H                0    7.61116000   -2.92956900    1.48702000
 N                0    5.50425000   -1.87386400   -0.89090300
 N                0    7.46321900   -2.80105300   -1.90946500
 C                0    7.91063700   -3.06973600   -0.69705400
 C                0    6.26106600   -2.16245800   -2.07376800
 N                0    9.14254000   -3.67020400   -0.61112400
 H                0    9.36531900   -4.18806100    0.22442700
 H                0    9.49105600   -4.04699400   -1.48087800
 O                0    5.78763200   -1.83696800   -3.15610600

