%nprocshared=8
%mem=3GB
# opt b3lyp/6-31g(d,p) empiricaldispersion=gd3

Practice Constrained opt

-1 1
 C               -1    4.45600400    5.19323400   -0.25160000
 C                0    4.72601600    4.70562700   -1.68716800
 C                0    4.70455800    3.17409000   -1.75508900
 O                0    3.61814000    2.61560900   -1.35244300
 O                0    5.73525400    2.56660800   -2.12026800
 H                0    4.49021500    6.28684700   -0.19143200
 H                0    3.95734400    5.10052900   -2.36778200
 H                0    5.69565400    5.05642400   -2.05079500
 C               -1    2.93103300    2.30423100    4.09472000
 C                0    3.78995400    1.04980100    4.33770900
 C                0    4.53469400    0.74160800    3.04371600
 O                0    3.80830500    0.36612400    2.05455500
 O                0    5.76355100    0.98866600    2.99349300
 H                0    3.55819600    3.13477800    3.75418100
 H                0    2.41950000    2.61400900    5.01284200
 H                0    4.51897300    1.22156600    5.13426900
 H                0    3.15034600    0.20876500    4.62443500
 C               -1   -2.20571900    0.25186900    7.40129000
 C                0   -1.79098300   -0.96485200    6.55090200
 C                0   -1.29203600   -0.61395300    5.16149200
 C                0    0.07361700   -0.63666100    4.84426100
 C                0   -2.19065600   -0.26595800    4.14288800
 C                0    0.53067300   -0.33863300    3.56033600
 C                0   -1.75602600    0.05032000    2.85592400
 C                0   -0.38840000    0.00478800    2.56901800
 O                0    0.10780100    0.30452400    1.32013300
 H                0   -1.35853600    0.93025900    7.54717800
 H                0   -1.01319900   -1.52620500    7.08328200
 H                0   -2.65109200   -1.64158400    6.46343900
 H                0    0.79637800   -0.90780500    5.61108600
 H                0   -3.25811300   -0.24428700    4.34865300
 H                0    1.58304000   -0.37031100    3.29676100
 H                0   -2.47645000    0.31022900    2.09009300
 H                0   -0.60297600    0.24214100    0.62900100
 C               -1   -5.17142300    2.43300700    3.87794000
 C                0   -4.15918700    2.87500300    2.81093900
 C                0   -4.33712700    2.19538500    1.43708000
 O                0   -3.95555100    2.82482600    0.41534100
 O                0   -4.84398200    1.02514500    1.45292800
 H                0   -6.19392200    2.69188100    3.58250100
 H                0   -4.18228800    3.95925600    2.65960300
 H                0   -3.14292700    2.62898200    3.14811600
 C               -1   -6.66103200   -2.11743900    1.56476000
 C                0   -5.30440800   -2.01524400    2.28059400
 C                0   -4.19114500   -2.35215700    1.30364500
 N                0   -3.82795400   -1.35925000    0.48556100
 O                0   -3.73778400   -3.51446400    1.25209600
 H                0   -6.73838300   -1.35647100    0.78329600
 H                0   -5.17286400   -0.99842800    2.66059300
 H                0   -5.24485200   -2.73331200    3.10242800
 H                0   -4.16462400   -0.40027100    0.65876400
 H                0   -3.08394600   -1.47851300   -0.18937300
 C               -1   -1.77870900    7.02703800   -3.39564100
 C                0   -1.77285100    6.51798200   -1.93957900
 C                0   -0.89615800    5.32167200   -1.74675800
 C                0   -1.13996600    4.04452400   -1.30545300
 N                0    0.45150100    5.33391500   -2.09325700
 C                0    0.96833000    4.10271200   -1.87351900
 N                0    0.02811600    3.30278100   -1.39280000
 H                0   -2.11645700    6.24200500   -4.07836000
 H                0   -2.78585400    6.24070700   -1.63378600
 H                0   -1.45867700    7.33100200   -1.27010200
 H                0    0.96758300    6.12823100   -2.43849600
 H                0   -2.05691600    3.62333300   -0.90593800
 H                0    1.99933000    3.80375000   -2.02835000
 C                0   -0.76890900   -4.34483500   -0.10518900
 O                0   -2.08995500   -4.51855300   -0.54091100
 C                0   -0.18968500   -2.99058900   -0.55048500
 O                0    1.21452900   -2.90998400   -0.21015200
 C                0   -0.24894100   -2.82456900   -2.07182500
 O                0   -0.10014200   -1.44420500   -2.50825200
 C                0    1.05985300   -3.48943600   -2.49738100
 C                0    2.00245800   -2.97855900   -1.40047700
 H                0    2.39066000   -1.99476900   -1.64556700
 H                0    0.96287900   -4.57912800   -2.46403200
 H                0   -1.16474700   -3.23086700   -2.49766300
 H                0   -0.70704100   -2.18615000   -0.02980300
 H                0   -0.15615100   -5.15264400   -0.53256200
 H                0    1.38377600   -3.18751100   -3.49389600
 H                0   -0.66562100   -4.40874700    0.98845200
 P                0   -0.81816800   -0.11092400   -2.01292200
 C                0   -3.18731400    0.39733100   -3.08914900
 O                0   -1.73875400    0.40997800   -3.21002800
 C                0   -3.75002400   -0.91825400   -3.59151900
 O                0   -3.25405200   -1.97869400   -2.76147300
 C                0   -5.30227700   -0.97708800   -3.54029100
 O                0   -5.84363700   -1.55908900   -4.73444000
 C                0   -5.55922900   -1.94701200   -2.38866800
 C                0   -4.34408300   -2.86627600   -2.45097900
 O                0    0.42826400    0.86374100   -2.02826700
 O                0   -5.54036500    1.35527100   -1.30993200
 O                0   -1.53133900   -0.17299900   -0.69331500
 H                0   -5.55329400   -1.39262300   -1.44881100
 H                0   -5.73865100    0.00708600   -3.33595900
 H                0   -3.49405800    0.58645400   -2.06085300
 H                0   -4.10143400   -3.37052700   -1.51676900
 H                0   -6.51515700   -2.46185900   -2.51031000
 H                0   -3.41370400   -1.08706600   -4.62637100
 H                0   -3.53562000    1.22412600   -3.71337300
 H                0   -2.44487900    7.88867200   -3.50249200
 H                0   -0.77944500    7.34144700   -3.71758300
 H                0   -4.96306300    2.90727900    4.84412100
 H                0   -5.13593900    1.34815300    4.00249600
 H                0   -2.57232200   -0.05946900    8.38595200
 H                0   -2.99969800    0.81878000    6.90364900
 H                0   -6.78644200   -3.10260300    1.10298300
 H                0   -7.48609300   -1.96049600    2.26730100
 H                0   -5.66711800   -0.94581800   -5.45934700
 H                0    3.47398000    4.85084700    0.08597700
 H                0    5.19117800    4.77242000    0.43799100
 H                0   -5.74205300    0.90618100   -0.47321900
 H                0   -2.69951900   -4.11540100    0.13316300
 H                0    2.18237700    2.12019800    3.32689700
 H                0   -4.90288500    2.01131100   -0.94356500
 O                0    2.39471500   -0.17557900   -0.41763600
 H                0    1.84199400   -0.53652700    0.29569300
 H                0    1.76753500    0.19320000   -1.07346400
 O                0    5.56401200    2.31266000    0.81186900
 H                0    6.21862000    2.21056900    0.10695200
 O                0    2.07297600    2.30506500    0.90952500
 H                0    1.68022600    2.82534600    0.19540600
 O                0    5.20156900    0.15828400   -1.00668200
 H                0    4.92977300   -0.65025400   -1.48220500
 H                0    5.86770300    1.77325700    1.60855500
 H                0    1.37705200    1.66692400    1.17042500
 H                0    5.45919600    0.84480200   -1.66941900
 H                0    0.21199300    1.84172000   -1.69710700
 H                0   -4.45264000   -3.61607900   -3.24818500
 Mg               0    3.83008100    1.21215800    0.20457500
 C                0    3.08595700   -4.93438700   -0.39315200
 C                0    4.18376900   -5.67778000   -0.08663200
 H                0    2.09043000   -5.17553400   -0.04193600
 H                0    4.10570000   -6.57729300    0.51068400
 N                0    3.18665300   -3.80667100   -1.13904600
 N                0    5.55709500   -4.07401600   -1.27950900
 C                0    5.43687700   -5.17774700   -0.56433600
 C                0    4.45622600   -3.33713100   -1.60482400
 N                0    6.58755500   -5.87276600   -0.30491700
 H                0    6.60121400   -6.50521000    0.47989300
 H                0    7.44045800   -5.36273200   -0.48730000
 O                0    4.49828800   -2.30504900   -2.27728800

