%chk=DTrunc_RC_hopt1.chk
%nprocshared=8
%mem=3GB
# opt b3lyp/6-31g(d,p) empiricaldispersion=gd3

M1 TS1 opt4

-1 1
 C               -1    2.93053400   -4.93347400    0.98541700
 C                0    2.55273700   -5.69638900   -0.29583700
 C                0    1.14116300   -5.31552800   -0.74636800
 O                0    0.92535500   -4.05839200   -0.90067200
 O                0    0.27535700   -6.21208500   -0.87326400
 H                0    3.91915800   -5.23625300    1.34832000
 H                0    3.25639100   -5.45942500   -1.10888000
 H                0    2.59180000   -6.77797800   -0.14353600
 C               -1    0.17833000   -1.76288000    4.43919600
 C                0   -1.30230200   -1.58022400    4.04235600
 C                0   -1.64487000   -2.65706700    3.02026800
 O                0   -1.76019300   -3.83373700    3.44761900
 O                0   -1.68238700   -2.31900000    1.78129400
 H                0    0.82472500   -1.66347600    3.56160300
 H                0    0.33045900   -2.75960700    4.86302500
 H                0   -1.93761200   -1.71649300    4.92419600
 H                0   -1.46518800   -0.58043800    3.63555900
 C               -1    4.59449900    4.89912500    2.68128600
 C                0    4.74459000    3.93857900    1.48103000
 O                0    4.53156300    2.71152700    1.69365500
 O                0    5.06635400    4.47465900    0.37719600
 H                0    5.58003900    5.30589800    2.93641800
 H                0    4.18367500    4.38403600    3.55276200
 C               -1    7.64957900   -0.43754000   -2.11925400
 C                0    6.96309900   -1.66130400   -1.49605400
 C                0    5.47089100   -1.64169000   -1.64249800
 C                0    4.56837200   -0.61522100   -1.75920600
 N                0    4.70964700   -2.80869500   -1.62501300
 C                0    3.40267100   -2.50550900   -1.72445800
 N                0    3.31054700   -1.18416700   -1.81238700
 H                0    7.26277000    0.48372400   -1.66851100
 H                0    7.35011200   -2.58616200   -1.94652600
 H                0    7.21348500   -1.71280300   -0.42765900
 H                0    5.06807600   -3.74520600   -1.51305300
 H                0    4.73227100    0.46174700   -1.71479500
 H                0    2.55721800   -3.18924900   -1.66661900
 C                0   -2.88896100    0.86078200    1.70023000
 O                0   -1.81129500    1.46114500    2.40972400
 C                0   -2.39775900    0.43338300    0.32329100
 O                0   -3.37862500   -0.29192800   -0.46873600
 C                0   -1.97802700    1.61438200   -0.54754400
 O                0   -0.93212700    1.23432600   -1.46186200
 C                0   -3.23895700    1.91360500   -1.35653100
 C                0   -3.98867400    0.56757600   -1.41611100
 H                0   -3.93462900    0.10798300   -2.40532100
 H                0   -3.85123700    2.65469400   -0.83683600
 H                0   -1.64544300    2.46635900    0.03896900
 H                0   -1.59436300   -0.27409700    0.49952400
 H                0   -3.70413900    1.59484700    1.63226200
 H                0   -3.01097500    2.29905600   -2.34815200
 H                0   -3.26350200   -0.02981600    2.22346300
 P                0    0.53305200    0.81501900   -0.87385700
 C                0    2.17762100    2.91200300   -0.55819900
 O                0    1.60244900    1.88541000   -1.41118900
 C                0    1.30264000    4.15854700   -0.57969200
 O                0    0.00512300    3.86877200   -0.03749800
 C                0    1.86772700    5.29360800    0.28794200
 O                0    1.30571500    6.56150200   -0.08368100
 C                0    1.28666500    4.93244100    1.65577100
 C                0   -0.11169600    4.42781500    1.28641800
 O                0    0.85921100   -0.46825400   -1.66371600
 O                0    5.47854000    2.00280200   -0.76644500
 O                0    0.50500400    0.70656100    0.64071700
 H                0    1.89034800    4.14382900    2.11223500
 H                0    2.96193500    5.32170600    0.26643100
 H                0    2.30484300    2.52226400    0.45338500
 H                0   -0.49719800    3.65360000    1.95682100
 H                0    1.27029700    5.79619400    2.32415900
 H                0    1.16262300    4.47819100   -1.62097000
 H                0    3.17250500    3.10995900   -0.95794000
 H                0    7.46498600   -0.39597300   -3.19724100
 H                0    8.72973500   -0.48528800   -1.95349800
 H                0    1.66776000    6.78510000   -0.95050200
 H                0    2.93781700   -3.85561400    0.81433200
 H                0    2.19111300   -5.12148900    1.76688200
 H                0    5.12972700    1.92037800    0.15663000
 H                0   -0.97060000    1.17563000    2.00163200
 H                0    0.48249000   -1.01313900    5.17659800
 H                0    5.51193900    2.98463400   -0.75817900
 O                0   -1.26736900   -2.05518200   -1.28994400
 H                0   -2.05139500   -1.49081300   -1.15794100
 H                0   -0.52441600   -1.46866200   -1.59683000
 O                0   -0.29447500   -4.87764600    1.66284300
 H                0   -0.52835300   -5.72670000    1.26663900
 O                0    0.93611300   -1.96375000    0.93848100
 H                0    1.60249300   -1.98586400    0.24046000
 O                0   -1.90530300   -4.67909200   -0.71942300
 H                0   -2.02080100   -4.17626800   -1.53884600
 H                0   -0.95572600   -4.66279300    2.40429500
 H                0    0.72248000   -0.99870100    1.02014300
 H                0   -1.20586200   -5.36003500   -0.93188200
 H                0    2.33575600   -0.71830400   -1.83707900
 H                0   -0.83002400    5.25762300    1.25083600
 Mg               0   -0.62435000   -3.26178200    0.32499200
 C                0   -5.97966600    0.17483600    0.02572000
 C                0   -7.30846500    0.32880400    0.29040000
 H                0   -5.30258800   -0.37373500    0.66803300
 H                0   -7.75597800   -0.10241400    1.17670500
 N                0   -5.43352800    0.70280500   -1.09413500
 N                0   -7.55750800    1.56323700   -1.78492500
 C                0   -8.06907300    1.05917800   -0.67653000
 C                0   -6.22616000    1.39998200   -2.06292600
 N                0   -9.41668300    1.22737500   -0.48594300
 H                0   -9.78459500    1.15876500    0.44969600
 H                0   -9.85443700    1.90052700   -1.09812300
 O                0   -5.66517600    1.81684000   -3.07038800
 H                0    3.95942700    5.74950600    2.41527700

