%nprocshared=8
%mem=30GB
# freq b3lyp/6-31g(d,p) empiricaldispersion=gd3

SA Asp M1 IC

-1 1
 C               -1    4.21515600   -5.31040500    0.08441300
 C                0    2.81069500   -5.22027400   -0.49240100
 O                0    2.37792200   -4.04337800   -0.76603400
 O                0    2.13261300   -6.27265800   -0.56908400
 H                0    4.88740100   -4.56220000   -0.34319900
 H                0    4.63022900   -6.31378600   -0.03315400
 C               -1   -0.23684700   -1.21717500    3.84230300
 C                0    0.00333300   -2.56785700    3.19889500
 O                0    0.58065400   -3.45783400    3.87194100
 O                0   -0.36374200   -2.68498800    1.97612000
 H                0    0.03640100   -1.23236600    4.89856800
 H                0   -1.27644800   -0.90444700    3.72590000
 C               -1    3.28437500    6.32563300    1.34165000
 C                0    4.43573900    5.31821800    1.18371300
 C                0    3.97273700    4.05794000    0.46720100
 O                0    3.18049600    3.31185100    1.21574400
 O                0    4.28599100    3.80376800   -0.69334200
 H                0    2.91041200    6.64131900    0.36206900
 H                0    5.25463500    5.75215300    0.60440400
 H                0    4.81371200    5.03534500    2.17230300
 C               -1    7.68878400   -0.20628200   -1.64019200
 C                0    6.27391700   -0.65850000   -1.49659000
 C                0    5.13429900   -0.01782800   -1.08154600
 N                0    5.86005700   -1.94979500   -1.80515400
 C                0    4.52221500   -2.03879700   -1.57244500
 N                0    4.05874000   -0.88475100   -1.13105300
 H                0    8.37092200   -0.77666900   -0.99702500
 H                0    7.76581700    0.84597200   -1.35694500
 H                0    6.45018300   -2.70158500   -2.12660100
 H                0    5.00943000    1.00815500   -0.76516300
 H                0    3.91921400   -2.93218500   -1.68146800
 C                0   -2.75466700    0.46270900    1.76898300
 O                0   -1.77274800    1.33925400    2.30068300
 C                0   -2.16287100   -0.32284100    0.60497500
 O                0   -3.02965400   -1.39925000    0.13693800
 C                0   -1.90019100    0.56046800   -0.61954100
 O                0   -0.72475300    0.15583800   -1.30577600
 C                0   -3.13845500    0.33252500   -1.49698800
 C                0   -3.70323100   -1.02767600   -1.04746300
 H                0   -3.56334400   -1.80588500   -1.80156700
 H                0   -3.87897700    1.11728000   -1.32411600
 H                0   -1.82617200    1.61259300   -0.33935000
 H                0   -1.25882000   -0.81233900    0.95953300
 H                0   -3.62747500    1.05089200    1.44231200
 H                0   -2.88202300    0.33609300   -2.55475900
 H                0   -3.09979000   -0.24296400    2.54114200
 P                0    0.75971200    0.87275000   -0.73280200
 C                0    0.54238500    3.52516100   -0.67343900
 O                0    0.25842300    2.31687000   -1.37503100
 C                0   -0.67098700    4.44583500   -0.78529700
 O                0   -1.83262500    3.85278800   -0.20765300
 C                0   -0.45204100    5.75704300   -0.01238600
 O                0   -1.31421400    6.80417400   -0.46169100
 C                0   -0.91395000    5.36109900    1.39099500
 C                0   -2.08682100    4.41357500    1.09596100
 O                0    1.46226300   -0.18419500   -1.74152000
 O                0    2.43011200    1.58107800   -0.43514300
 O                0    0.57537500    0.65530100    0.77684600
 H                0   -0.10676200    4.84152500    1.91643800
 H                0    0.59856200    6.08055400   -0.03768700
 H                0    0.74869500    3.32038400    0.37969700
 H                0   -2.16598500    3.59063600    1.81150100
 H                0   -1.20376900    6.23838000    1.97428700
 H                0   -0.88126000    4.62672400   -1.84956500
 H                0    1.42626900    4.01603200   -1.10344600
 H                0    3.61379400    7.21970200    1.88043800
 H                0    2.45515300    5.87437400    1.89340700
 H                0   -1.24270900    6.84955400   -1.42383800
 H                0    2.83338900    2.51862400    0.63255700
 H                0   -0.91723900    1.15575900    1.85470000
 H                0    2.81000500    1.99909900   -1.22348300
 O                0   -0.53456600   -2.54129700   -0.89342700
 H                0   -1.38030600   -2.48050800   -0.41313400
 H                0   -0.40289900   -1.61899900   -1.22584200
 O                0    1.68040400   -4.72935900    1.97122900
 H                0    1.32692800   -5.61200200    1.80392200
 O                0    1.99635600   -1.68860600    0.92070900
 H                0    2.73783100   -1.44821800    0.33697000
 O                0   -0.21795800   -5.16754900   -0.20694800
 H                0   -0.56712200   -4.79957000   -1.03123000
 H                0    1.23810600   -4.37459400    2.81941800
 H                0    1.47841900   -0.85391300    1.04416900
 H                0    0.57776700   -5.71519900   -0.48373700
 H                0    2.41904900   -0.31152000   -1.51782300
 H                0   -3.03368600    4.96726800    1.05444500
 Mg               0    0.86113400   -3.38804900    0.50003600
 C                0   -5.68099800   -1.10334800    0.46237100
 C                0   -7.02693700   -1.03165700    0.67884600
 H                0   -4.95706900   -1.27534600    1.24850400
 H                0   -7.44234700   -1.14928400    1.67156600
 N                0   -5.17156300   -0.97492400   -0.78169600
 N                0   -7.36682700   -0.71535100   -1.70179300
 C                0   -7.84290600   -0.82328100   -0.47552200
 C                0   -6.01574200   -0.80366700   -1.92563600
 N                0   -9.21021000   -0.76787200   -0.33599800
 H                0   -9.58354100   -0.48904800    0.55816700
 H                0   -9.69853800   -0.42097600   -1.14940800
 O                0   -5.48774900   -0.73305900   -3.02948800
 H                0    4.10488200   -5.08950400    1.15081000
 H                0    0.36746400   -0.47355700    3.31364200
 H                0    8.04818000   -0.30125800   -2.67261900

