%nprocshared=8
%mem=30GB
# freq b3lyp/6-31g(d,p) empiricaldispersion=gd3

M1 TS1 opt4

-1 1
 C               -1   -3.05356300    4.86532700    0.83276200
 C                0   -2.60923200    5.70282500   -0.37728800
 C                0   -1.18898700    5.32328100   -0.80243000
 O                0   -0.97503300    4.06901700   -0.97849700
 O                0   -0.31713000    6.21904500   -0.89351700
 H                0   -4.04408200    5.17591200    1.18389500
 H                0   -3.28780400    5.53904200   -1.22897600
 H                0   -2.63117200    6.77266800   -0.15444200
 C               -1   -0.48886200    1.68138700    4.41615700
 C                0    1.00464600    1.51443100    4.06320600
 C                0    1.37870400    2.60746700    3.06915600
 O                0    1.45955800    3.77975100    3.51727300
 O                0    1.48269800    2.28667300    1.82957300
 H                0   -1.10613700    1.59150200    3.51673900
 H                0   -0.66140300    2.67015000    4.85054200
 H                0    1.61049800    1.64087700    4.96714300
 H                0    1.18695300    0.52143000    3.64856600
 C               -1   -4.87317400   -4.94948900    2.47080100
 C                0   -4.93094700   -3.89972700    1.34126100
 O                0   -4.56803700   -2.72342300    1.62615800
 O                0   -5.32394000   -4.32385000    0.21209900
 H                0   -5.87636900   -5.35885500    2.63470500
 H                0   -4.50000700   -4.51373500    3.40047800
 C               -1   -6.99401400    1.61932900   -1.82481600
 C                0   -5.50385000    1.69951500   -1.89857600
 C                0   -4.55627700    0.70995400   -1.89446000
 N                0   -4.79473100    2.89755800   -1.98389100
 C                0   -3.47342100    2.64017100   -2.02139700
 N                0   -3.32163200    1.32269300   -1.97757500
 H                0   -7.46766800    1.87126000   -2.78083500
 H                0   -7.39604200    2.28878900   -1.05618800
 H                0   -5.19169100    3.82471900   -1.96046900
 H                0   -4.69544300   -0.36336600   -1.75224600
 H                0   -2.65678100    3.35377500   -1.99453700
 C                0    2.66491600   -0.91220200    1.75349100
 O                0    1.55343300   -1.50551700    2.41490600
 C                0    2.23170000   -0.46375900    0.36405100
 O                0    3.25366300    0.25385100   -0.38216000
 C                0    1.82789800   -1.62978000   -0.53425600
 O                0    0.82748500   -1.22505300   -1.48857100
 C                0    3.11563900   -1.94159800   -1.29426500
 C                0    3.87981800   -0.60311200   -1.32192500
 H                0    3.85514500   -0.13482800   -2.30825200
 H                0    3.69979000   -2.68886800   -0.75133400
 H                0    1.45715400   -2.48075400    0.03029900
 H                0    1.43253700    0.25372700    0.51861900
 H                0    3.47166000   -1.65709500    1.70855900
 H                0    2.92354500   -2.32351500   -2.29477800
 H                0    3.03166700   -0.03219100    2.29982600
 P                0   -0.65110300   -0.77761100   -0.95980700
 C                0   -2.34123900   -2.84216200   -0.71098300
 O                0   -1.72265900   -1.82158600   -1.54269200
 C                0   -1.49233700   -4.10635100   -0.71724600
 O                0   -0.20941200   -3.85178400   -0.12646400
 C                0   -2.11259900   -5.23773700    0.11694100
 O                0   -1.56564300   -6.51394900   -0.24836200
 C                0   -1.57553700   -4.90243500    1.50917600
 C                0   -0.15447800   -4.42375400    1.19649200
 O                0   -0.91158100    0.51734200   -1.75732800
 O                0   -5.56602400   -1.76873600   -0.75369200
 O                0   -0.68433300   -0.67481700    0.55432000
 H                0   -2.18220700   -4.10748100    1.95054700
 H                0   -3.20561700   -5.24162400    0.05591300
 H                0   -2.48755400   -2.45786900    0.29967500
 H                0    0.22048500   -3.66297500    1.88784300
 H                0   -1.59975500   -5.77415300    2.16688300
 H                0   -1.32235900   -4.41745700   -1.75688000
 H                0   -3.32945900   -3.01799500   -1.13698100
 H                0   -1.88711700   -6.71361300   -1.13679700
 H                0   -3.09369900    3.80375800    0.58453500
 H                0   -2.33574400    4.97364800    1.64843000
 H                0   -5.16216300   -1.74997000    0.14678700
 H                0    0.73247200   -1.19486600    1.98624600
 H                0   -0.81080400    0.91752200    5.13106700
 H                0   -5.66188500   -2.74738000   -0.78300800
 O                0    1.22084800    2.06197200   -1.26627100
 H                0    1.98701200    1.48112600   -1.10274600
 H                0    0.48296600    1.49409500   -1.61662400
 O                0    0.13067100    4.86394300    1.65827900
 H                0    0.40101900    5.71448200    1.28979500
 O                0   -1.09575800    1.98855100    0.86059800
 H                0   -1.72976200    2.05741300    0.13580700
 O                0    1.84549200    4.67534800   -0.64839500
 H                0    1.99210500    4.17320700   -1.46333700
 H                0    0.73922700    4.62723600    2.43921500
 H                0   -0.91170100    1.01586400    0.92701000
 H                0    1.15841700    5.36015500   -0.88963400
 H                0   -2.33058700    0.86881800   -1.94643800
 H                0    0.54862100   -5.26710000    1.17994200
 Mg               0    0.51118100    3.25828400    0.32777900
 C                0    5.83438900   -0.24988300    0.17831300
 C                0    7.15469600   -0.41811300    0.47487900
 H                0    5.14447000    0.29255500    0.81213600
 H                0    7.58179100   -0.00517900    1.37978200
 N                0    5.31415700   -0.75455400   -0.96444000
 N                0    7.44929400   -1.61989400   -1.61359700
 C                0    7.93545400   -1.13722000   -0.48444600
 C                0    6.12652400   -1.44366800   -1.92274900
 N                0    9.27672600   -1.31685300   -0.26278000
 H                0    9.62202400   -1.26448100    0.68246700
 H                0    9.72624500   -1.98225200   -0.87488000
 O                0    5.58866100   -1.84247600   -2.94989800
 H                0   -4.23434000   -5.78756000    2.17427000
 H                0   -7.25964200    0.59295000   -1.55856400

