%nprocshared=8
%mem=30GB
# freq b3lyp/6-31g(d,p) empiricaldispersion=gd3

Title Card Required

-1 1
 C               -1    7.33565900   -2.16461600   -0.27426200
 C                0    7.46435900   -0.88047800    0.57351500
 C                0    6.70051100    0.22175100   -0.15760700
 O                0    5.49111500    0.42409300    0.19533900
 O                0    7.28300100    0.75275000   -1.13772400
 H                0    7.96545000   -2.97064900    0.12235800
 H                0    7.05088400   -1.02404800    1.57756600
 H                0    8.51700100   -0.59436300    0.65942000
 C               -1    3.61757400   -2.58941500   -4.21762500
 C                0    2.26873200   -1.83087400   -4.18359900
 C                0    2.14197100   -1.16023300   -2.81936600
 O                0    1.75590800   -1.88750900   -1.85675700
 O                0    2.59074500    0.02482000   -2.70072400
 H                0    3.64290800   -3.35310600   -3.43330500
 H                0    4.44896300   -1.89005300   -4.07261300
 H                0    2.24061400   -1.07637700   -4.97425200
 H                0    1.43871600   -2.53038700   -4.31838500
 C               -1   -2.19354800   -5.00143000   -5.61309000
 C                0   -3.24667400   -4.85548200   -4.50803100
 C                0   -2.92235400   -3.66863800   -3.63592400
 C                0   -3.64043600   -2.47207700   -3.71601900
 C                0   -1.79341700   -3.70854900   -2.80556800
 C                0   -3.25408400   -1.35178600   -2.98261600
 C                0   -1.38909800   -2.60772200   -2.06400800
 C                0   -2.13141900   -1.42094700   -2.15159600
 O                0   -1.78708100   -0.32195000   -1.43955500
 H                0   -2.16011800   -4.09837600   -6.23143000
 H                0   -4.24185900   -4.73880200   -4.95424600
 H                0   -3.27691500   -5.77773800   -3.91189500
 H                0   -4.51519600   -2.41367200   -4.36052600
 H                0   -1.20752100   -4.62321300   -2.75329300
 H                0   -3.82061200   -0.42745000   -3.01628200
 H                0   -0.50839400   -2.64040700   -1.43459900
 H                0   -1.15939200   -0.58795400   -0.66703100
 C               -1   -5.50860500    2.66457500   -2.68473500
 C                0   -4.17297300    3.40623900   -2.53003100
 C                0   -3.70131000    3.65304300   -1.10159900
 N                0   -3.91581100    2.66073100   -0.21687900
 O                0   -3.10724600    4.70196500   -0.79709000
 H                0   -5.46987400    1.64901400   -2.28274700
 H                0   -3.36773700    2.84021300   -3.01784400
 H                0   -4.21047000    4.39016300   -3.00643500
 H                0   -4.33750700    1.76024600   -0.44965200
 H                0   -3.60659700    2.76542400    0.74027100
 C               -1   -2.52147400   -6.62716900   -0.79480200
 C                0   -1.38134900   -5.91560000   -0.05874800
 C                0   -1.74714200   -4.60473400    0.63707200
 O                0   -0.70320000   -4.11732900    1.28796800
 O                0   -2.85526100   -4.08497600    0.58840000
 H                0   -3.30529500   -6.93890700   -0.09771800
 H                0   -0.92759300   -6.56602700    0.69888800
 H                0   -0.56655900   -5.66703900   -0.74897000
 C               -1   -6.03092000   -2.94588800    0.75738300
 C                0   -5.37811700   -2.33609000   -0.49038100
 C                0   -4.71542300   -1.01849100   -0.13591200
 N                0   -3.66567700   -1.10791400    0.70223200
 O                0   -5.18427200    0.06630100   -0.52357200
 H                0   -5.26636900   -3.24001400    1.48049300
 H                0   -4.63125000   -3.02681200   -0.89150000
 H                0   -6.11697600   -2.12512400   -1.26639500
 H                0   -3.17086200   -1.99120400    0.80389600
 H                0   -3.14601100   -0.26144800    0.88689400
 C               -1    4.20415000   -5.31740600    5.41578200
 C                0    5.00601900   -4.78037700    4.22212800
 C                0    4.28814000   -3.67176900    3.51826500
 C                0    3.01358200   -3.18183400    3.65079200
 N                0    4.86306200   -2.87427200    2.53875900
 C                0    3.94300100   -1.95708700    2.12867300
 N                0    2.81300200   -2.12571000    2.78862000
 H                0    3.24169900   -5.72190900    5.08770100
 H                0    5.98514100   -4.42251400    4.57098500
 H                0    5.21717300   -5.60287000    3.52329200
 H                0    5.79265500   -2.96012000    2.15601600
 H                0    2.23203300   -3.52473200    4.31212200
 H                0    4.14525300   -1.20381900    1.38196700
 C                0   -0.57271300    2.71823700   -2.26999600
 O                0   -1.33182300    1.78583200   -3.00921500
 C                0    0.21624000    2.13424000   -1.08763700
 O                0    1.20568800    3.14688600   -0.74867600
 C                0   -0.52497700    1.91950300    0.24772200
 O                0    0.26358700    1.12534000    1.12550300
 C                0   -0.55256800    3.33491600    0.83414400
 C                0    0.85036700    3.82297300    0.47062900
 H                0    1.57568600    3.54302800    1.23307500
 H                0   -1.35503500    3.92227300    0.38642700
 H                0   -1.52763700    1.51871600    0.09991800
 H                0    0.74978400    1.23408700   -1.40216000
 H                0   -1.19483800    3.55169900   -1.91195900
 H                0   -0.69729600    3.29079100    1.91371000
 H                0    0.17845000    3.15011800   -2.94304600
 P                0   -0.35014500   -0.38452800    1.86204200
 C                0   -2.49345400    0.12626800    3.48287300
 O                0   -1.59566800    0.53632400    2.46112200
 C                0   -3.49563800    1.25599600    3.68892700
 O                0   -4.08962800    1.61670300    2.43814500
 C                0   -4.65311300    0.81539500    4.60949300
 O                0   -5.19921000    1.89840200    5.36370900
 C                0   -5.71676300    0.38790300    3.59556600
 C                0   -5.51482200    1.41997600    2.48826400
 O                0    0.92571400   -0.31396900    2.83243500
 O                0   -0.94597500   -1.86646700    2.69089300
 O                0   -0.48973600   -1.11087700    0.51843300
 H                0   -5.49650700   -0.61578600    3.21961200
 H                0   -4.34774100   -0.00574500    5.27625300
 H                0   -3.01240300   -0.79453200    3.20758700
 H                0   -5.83437100    1.08651600    1.49993300
 H                0   -6.71665600    0.40062500    4.03573500
 H                0   -2.97550300    2.13639400    4.09603200
 H                0   -1.95578400   -0.05074700    4.42531700
 H                0    4.00508100   -4.52094100    6.13901100
 H                0    4.75089100   -6.11691200    5.92429800
 H                0   -2.14702700   -7.51298100   -1.31696400
 H                0   -2.98001500   -5.95269000   -1.52197400
 H                0   -2.40043500   -5.85784900   -6.26746200
 H                0   -1.19650100   -5.13850800   -5.18307800
 H                0   -6.31963000    3.19279100   -2.17060200
 H                0   -6.71325800   -2.23354700    1.23566400
 H                0   -6.60595300   -3.84118700    0.49732400
 H                0   -4.46842900    2.34375000    5.81166000
 H                0   -5.77519300    2.59235400   -3.74479300
 H                0    6.29975300   -2.50736600   -0.29987600
 H                0    7.65901900   -1.95751200   -1.29870600
 H                0   -0.87662100   -3.22011000    1.71292600
 H                0   -1.58263400    1.04887400   -2.41368700
 H                0    3.76538400   -3.09285500   -5.17858700
 H                0   -0.56388800   -1.91641000    3.57620100
 O                0    3.70962200    2.43963800   -1.08139200
 H                0    2.77642100    2.77394200   -1.02318000
 H                0    4.17873000    2.94575300   -0.40194900
 O                0    4.28063600   -1.82416600   -1.05805100
 H                0    4.74335600   -1.96875900   -1.89428600
 O                0    2.40472300   -0.11402100    0.18161900
 H                0    1.73667500    0.49722700    0.58617300
 O                0    5.31607000    0.37721500   -2.71444000
 H                0    4.99522300    1.02945000   -3.34904700
 H                0    3.35785800   -2.14519800   -1.21168200
 H                0    1.86074700   -0.77485600   -0.30715800
 H                0    6.15364200    0.72136400   -2.26675000
 H                0    1.58734300   -1.08619300    2.75498500
 H                0   -6.01021100    2.36654700    2.74285700
 Mg               0    3.91316500    0.38813400   -1.10833300
 C                0    0.03115100    6.05217100   -0.23304800
 C                0    0.26370600    7.36354100   -0.51539500
 H                0   -0.94730400    5.60543500   -0.37857500
 H                0   -0.52581900    7.99747500   -0.89844900
 N                0    1.02743100    5.25819300    0.24663600
 N                0    2.58794500    7.07637300    0.11648000
 C                0    1.59138600    7.84289600   -0.28540000
 C                0    2.38329700    5.73783300    0.31646900
 N                0    1.88319300    9.16072700   -0.52295200
 H                0    1.13250800    9.83247300   -0.52513700
 H                0    2.77978600    9.47302500   -0.17993300
 O                0    3.28384000    4.94135400    0.56819600

