%chk=Acess-B3LYP-gd3-RC.chk
%nprocshared=16
%mem=50GB
# opt b3lyp/6-31g(d,p) empiricaldispersion=gd3

Title Card Required

-2 1
 C               -1   -2.72754100    2.50639100    3.21314100
 C                0   -3.41438100    1.82968700    2.03559600
 O                0   -2.69660100    1.00494100    1.37487300
 O                0   -4.58986300    2.16437300    1.74059700
 H                0   -2.09264600    1.79511400    3.74672700
 H                0   -3.44984000    2.97268700    3.88770700
 C               -1    0.46731300    1.98422300   -3.26064700
 C                0   -1.00624200    1.64494800   -3.17568800
 O                0   -1.44754200    0.67434000   -3.82609800
 O                0   -1.72206000    2.32690800   -2.34331500
 H                0    0.68548900    2.96602100   -2.83742400
 H                0    0.81719000    1.92053500   -4.29535700
 C               -1    6.25526400    0.42417700   -2.13329900
 C                0    5.68330900    0.80882400   -0.74043500
 O                0    5.02135900   -0.10352900   -0.16081900
 O                0    5.90820000    1.96842200   -0.32323100
 H                0    5.42417200    0.23492800   -2.82279500
 H                0    6.82334400   -0.51056800   -2.05823200
 Mg               0   -2.16428600    1.42726500   -0.52615900
 C                0   -2.83989300   -3.98569500   -0.44071400
 O                0   -4.09178300   -3.53734200    0.08503800
 C                0   -1.71275300   -3.20947900    0.28380100
 O                0   -1.05661800   -2.36592800   -0.67291200
 C                0   -2.47724100   -2.37521700    1.32565400
 C               -1   -3.86014800   -2.25284600    0.68999700
 H                0   -3.87988100   -1.45413000   -0.06050500
 H                0   -2.54838000   -2.93662700    2.26497900
 H                0   -0.96759100   -3.87364900    0.72942100
 H                0   -2.76230000   -3.78495900   -1.51847900
 H                0   -1.98769500   -1.42015500    1.51382300
 P                0    0.57607900   -2.01881300   -0.48303500
 C                0    1.66534900   -1.41880300    1.87889500
 O                0    0.46826800   -1.53562000    1.08981000
 C                0    2.39844800   -0.12438800    1.61415200
 O                0    1.53748400    0.99598600    1.94889000
 C                0    3.63316000    0.11424600    2.47684500
 C                0    3.81100200    1.64387000    2.36441900
 C                0    2.40061800    2.14737600    1.95782300
 O                0    0.78734800   -0.81945400   -1.38096500
 O                0    4.23917300   -2.73024800    0.25791000
 O                0    1.39837900   -3.26595800   -0.59648900
 H                0    4.14404700    2.09160300    3.30846300
 H                0    3.42399600   -0.19442100    3.51147700
 H                0    1.33678600   -1.44997600    2.92430900
 H                0    1.96294500    2.87151500    2.65523700
 H                0    4.54296200    1.86714500    1.57955700
 H                0    2.69092500   -0.06278500    0.55791300
 H                0    2.35306400   -2.24537300    1.67248100
 H                0    4.53035900   -1.83836800   -0.03544400
 O                0   -4.33250300    1.79624400   -0.82950000
 H                0   -4.51020400    0.91574200   -1.18929700
 H                0   -4.63029600    1.79748100    0.13182500
 O                0   -0.18443400    1.24263700   -0.15486200
 H                0    0.22003400    1.15952000    0.73697300
 O                0   -2.55840400   -0.31439000   -1.62381800
 H                0   -1.98212100   -1.07113400   -1.36351900
 O                0   -2.20514400    3.66498800   -0.18940500
 H                0   -1.78050400    3.61021200   -1.07691200
 H                0    0.24710700    0.49194100   -0.67171600
 H                0   -2.28539500   -0.06701600   -2.55395300
 H                0   -3.14612500    3.77049100   -0.39377800
 H                0    3.40421800   -2.89413100   -0.21110400
 H                0    2.41902900    2.59568800    0.95500600
 H                0    6.89191800    1.21592700   -2.54127200
 H                0    1.00122000    1.21907300   -2.68915400
 H                0   -2.07338200    3.27888300    2.79429000
 H                0   -4.66575100   -2.07569100    1.40971500
 H                0   -2.77531600   -5.06894800   -0.28017800
 H                0    4.48921000   -0.42639500    2.07579600

