%chk=Acess-B3LYP-gd3-PC2.chk
%nprocshared=16
%mem=50GB
# opt b3lyp/6-31g(d,p) empiricaldispersion=gd3

Title Card Required

-2 1
 C               -1   -5.50420400    0.84639700    2.60553300
 C                0   -4.68411300    0.26291800    1.45509300
 O                0   -3.42480600    0.51407300    1.47751900
 O                0   -5.28255900   -0.37398800    0.55929000
 H                0   -4.94080900    0.82755200    3.54233400
 H                0   -6.45862900    0.32444200    2.70897300
 C               -1    0.11306500    3.41614000   -1.16714300
 C                0   -1.29604900    3.89379000   -0.80136100
 O                0   -1.64229900    5.05496500   -1.02024200
 O                0   -2.05014900    2.99740800   -0.22622200
 H                0    0.69000000    3.27948300   -0.24569300
 H                0    0.61931800    4.15428900   -1.79285700
 C               -1    4.91296900    3.10334100    2.58356600
 C                0    4.55233000    2.84976300    1.13471600
 O                0    3.24111600    2.88995400    0.94520000
 O                0    5.38651500    2.62987700    0.26644300
 H                0    4.38500700    3.98510800    2.95685400
 H                0    5.99174200    3.22784000    2.68336200
 Mg               0   -2.18712900    1.06253400   -0.00014200
 C                0   -1.45532700   -4.02856700   -0.88989800
 O                0   -2.80124700   -4.07873700   -1.36274600
 C                0   -1.42823100   -3.12990900    0.38898700
 O                0   -0.56696900   -2.02144000    0.23764500
 C                0   -2.91374200   -2.74366400    0.54789400
 C               -1   -3.43502900   -2.87800300   -0.87965900
 H                0   -3.13229900   -2.01402800   -1.48138800
 H                0   -3.43000400   -3.46508000    1.19329400
 H                0   -1.06556100   -3.69326700    1.25791500
 H                0   -0.78730200   -3.57453200   -1.63656700
 H                0   -3.02903800   -1.74421800    0.96530000
 P                0    2.69261900    0.26475900   -1.40410200
 C                0    2.81617100   -1.09137100    0.88915800
 O                0    3.42716000   -0.12001700    0.03733600
 C                0    3.61691400   -2.39788200    0.86910800
 O                0    3.07889100   -3.28872500    1.86705400
 C                0    3.51681500   -3.16326200   -0.45342900
 C                0    2.19062200   -3.91665900   -0.26737400
 C                0    2.19654400   -4.23132700    1.23848900
 O                0    1.20230700    0.35571300   -1.16578100
 O                0    3.24087200    1.84733600   -1.46562600
 O                0    3.28761900   -0.52323700   -2.52807000
 H                0    1.34865500   -3.26291900   -0.50736000
 H                0    3.52726200   -2.49924300   -1.32158100
 H                0    2.81386500   -0.69422500    1.91123400
 H                0    1.19645100   -4.14649800    1.68167300
 H                0    2.11367500   -4.81931000   -0.88224500
 H                0    4.65613600   -2.17757100    1.14438100
 H                0    1.77683800   -1.27758800    0.60263500
 H                0    3.04958600    2.57065600    0.01335100
 O                0   -3.93798900    0.74793400   -1.47140100
 H                0   -3.18631500    0.22260700   -1.83857500
 H                0   -4.45705100    0.14059000   -0.88632800
 O                0   -0.35868200    0.63782700    1.04963100
 H                0   -0.43320100   -0.33083200    1.17103100
 O                0   -1.56653800   -0.28626300   -1.36267900
 H                0   -0.96092700   -1.38590700   -0.47828700
 O                0   -4.85695000    3.15772700    0.04597400
 H                0   -3.91298400    3.41672700    0.05674900
 H                0    0.31064200    0.68424500    0.31803700
 H                0   -0.71381800   -0.04784200   -1.76058400
 H                0   -4.82030000    2.44454700   -0.60916100
 H                0    4.21252800    1.86353500   -1.39413600
 H                0    2.57464000   -5.24681600    1.44178700
 H                0    4.58267700    2.24763200    3.18104500
 H                0    0.10203700    2.44394500   -1.66347900
 H                0   -5.68411600    1.89134400    2.32839000
 H                0   -4.51743100   -3.01371200   -0.94835400
 H                0   -1.12343500   -5.05878600   -0.70444800
 H                0    4.35570700   -3.86746000   -0.53276200

