%chk=Acess-B3LYP-gd3-freq2.chk
%nprocshared=16
%mem=50GB
# freq b3lyp/6-31g(d,p) empiricaldispersion=gd3

Title Card Required

-2 1
 C               -1   -4.48473700   -0.12331600    3.64000000
 C                0   -4.86398300   -0.27216300    2.17248000
 O                0   -3.91924600   -0.62593200    1.39160000
 O                0   -6.02487300    0.04462500    1.80273600
 H                0   -3.80568000   -0.92333600    3.94472400
 H                0   -5.36652400   -0.09132400    4.28606500
 C               -1   -0.68467600    3.69541500   -1.19389600
 C                0   -1.91319800    2.87942400   -1.52002600
 O                0   -2.03974900    2.36729000   -2.64485800
 O                0   -2.73574200    2.69873000   -0.53367600
 H                0   -0.87456600    4.40248500   -0.38137000
 H                0   -0.31715100    4.21889800   -2.08190600
 C               -1    5.02302300    3.87364600    0.94977200
 C                0    4.73479600    2.64152000    0.08838300
 O                0    3.45735200    2.40545900   -0.00903600
 O                0    5.65222500    1.99224800   -0.41587900
 H                0    4.69134300    3.68298100    1.97586200
 H                0    4.44952700    4.72976100    0.58139200
 Mg               0   -3.14431000    0.87669000    0.23583900
 C                0   -1.04965200   -3.25600900   -1.92117300
 O                0   -2.47571400   -3.46326900   -2.01563400
 C                0   -0.74733800   -2.71814500   -0.50468400
 O                0   -0.69099200   -1.32441500   -0.46249000
 C                0   -1.97361500   -3.23317500    0.27928600
 C               -1   -3.08323000   -3.11262800   -0.76444600
 H                0   -3.48407100   -2.09586200   -0.79019600
 H                0   -1.83324500   -4.28576200    0.56491200
 H                0    0.18936300   -3.14584900   -0.11507300
 H                0   -0.70590100   -2.53086900   -2.66164400
 H                0   -2.16924300   -2.63468900    1.17160100
 P                0    1.14761900   -0.40540100   -0.97234200
 C                0    2.89120300   -1.99725300    0.23309900
 O                0    1.69864200   -1.23527300    0.36464000
 C                0    4.12100600   -1.27820800    0.80775900
 O                0    4.58247800   -1.97898700    1.99315500
 C                0    5.36038900   -1.24134000   -0.08534300
 C                0    6.47438100   -0.95495000    0.92912900
 C                0    5.93480300   -1.60707400    2.23026700
 O                0    0.47864700    0.91067200   -0.61090500
 O                0    2.86756600    0.34070400   -1.18204300
 O                0    1.20765500   -1.13458400   -2.29171600
 H                0    7.45055100   -1.35748700    0.63475300
 H                0    5.49533200   -2.22283100   -0.56040000
 H                0    2.74724600   -2.92720400    0.79798600
 H                0    6.49332900   -2.51390700    2.50849600
 H                0    6.57604600    0.12850400    1.03921700
 H                0    3.82277200   -0.25674000    1.07417400
 H                0    3.05527800   -2.25426800   -0.81888800
 H                0    3.19656900    1.49401800   -0.57509200
 O                0   -5.23277500    0.86113300   -0.61542900
 H                0   -4.93831400    0.20214200   -1.26281400
 H                0   -5.68038300    0.36716200    0.12439300
 O                0   -1.34553200    0.61945300    1.19069100
 H                0   -1.18277700   -0.33646200    0.99669000
 O                0   -2.64866000   -0.07450900   -1.51914900
 H                0   -1.80615300   -0.60146300   -1.24730200
 O                0   -4.10983200    2.46574600    1.63079300
 H                0   -3.69264900    3.01754400    0.93297500
 H                0   -0.61083700    0.95456900    0.58770400
 H                0   -2.37621300    0.65414100   -2.12335600
 H                0   -5.02190000    2.31478000    1.34374800
 H                0    2.96989100    0.34546400   -2.14169600
 H                0    6.00293200   -0.90750100    3.08091900
 H                0    6.09121000    4.10002500    0.94246900
 H                0    0.08280000    2.97901600   -0.88046600
 H                0   -3.94191600    0.82389600    3.71918700
 H                0   -3.91831600   -3.80648300   -0.58830200
 H                0   -0.54819400   -4.22178600   -2.10309200
 H                0    5.27063900   -0.46802200   -0.84664800

